data_image0
_cell_length_a       20.7004
_cell_length_b       20.7004
_cell_length_c       20.7004
_cell_angle_alpha    90
_cell_angle_beta     90
_cell_angle_gamma    90

_symmetry_space_group_name_H-M    "P 1"
_symmetry_int_tables_number       1

loop_
  _symmetry_equiv_pos_as_xyz
  'x, y, z'

loop_
  _atom_site_label
  _atom_site_occupancy
  _atom_site_fract_x
  _atom_site_fract_y
  _atom_site_fract_z
  _atom_site_thermal_displace_type
  _atom_site_B_iso_or_equiv
  _atom_site_type_symbol
  B1       1.0000 0.11989  0.00000  0.00000  Biso   1.000  B 
  B2       1.0000 0.11989  0.50000  0.50000  Biso   1.000  B 
  B3       1.0000 0.61989  0.00000  0.50000  Biso   1.000  B 
  B4       1.0000 0.61989  0.50000  0.00000  Biso   1.000  B 
  B5       1.0000 0.88011  0.00000  0.00000  Biso   1.000  B 
  B6       1.0000 0.88011  0.50000  0.50000  Biso   1.000  B 
  B7       1.0000 0.38011  0.00000  0.50000  Biso   1.000  B 
  B8       1.0000 0.38011  0.50000  0.00000  Biso   1.000  B 
  B9       1.0000 0.00000  0.11989  0.00000  Biso   1.000  B 
  B10      1.0000 0.00000  0.61989  0.50000  Biso   1.000  B 
  B11      1.0000 0.50000  0.11989  0.50000  Biso   1.000  B 
  B12      1.0000 0.50000  0.61989  0.00000  Biso   1.000  B 
  B13      1.0000 0.00000  0.88011  0.00000  Biso   1.000  B 
  B14      1.0000 0.00000  0.38011  0.50000  Biso   1.000  B 
  B15      1.0000 0.50000  0.88011  0.50000  Biso   1.000  B 
  B16      1.0000 0.50000  0.38011  0.00000  Biso   1.000  B 
  B17      1.0000 0.00000  0.00000  0.11989  Biso   1.000  B 
  B18      1.0000 0.00000  0.50000  0.61989  Biso   1.000  B 
  B19      1.0000 0.50000  0.00000  0.61989  Biso   1.000  B 
  B20      1.0000 0.50000  0.50000  0.11989  Biso   1.000  B 
  B21      1.0000 0.00000  0.00000  0.88011  Biso   1.000  B 
  B22      1.0000 0.00000  0.50000  0.38011  Biso   1.000  B 
  B23      1.0000 0.50000  0.00000  0.38011  Biso   1.000  B 
  B24      1.0000 0.50000  0.50000  0.88011  Biso   1.000  B 
  B25      1.0000 0.05610  0.44390  0.44390  Biso   1.000  B 
  B26      1.0000 0.55610  0.94390  0.44390  Biso   1.000  B 
  B27      1.0000 0.55610  0.44390  0.94390  Biso   1.000  B 
  B28      1.0000 0.44390  0.05610  0.44390  Biso   1.000  B 
  B29      1.0000 0.44390  0.55610  0.94390  Biso   1.000  B 
  B30      1.0000 0.94390  0.94390  0.05610  Biso   1.000  B 
  B31      1.0000 0.94390  0.44390  0.55610  Biso   1.000  B 
  B32      1.0000 0.05610  0.05610  0.05610  Biso   1.000  B 
  B33      1.0000 0.55610  0.55610  0.05610  Biso   1.000  B 
  B34      1.0000 0.94390  0.05610  0.05610  Biso   1.000  B 
  B35      1.0000 0.94390  0.55610  0.55610  Biso   1.000  B 
  B36      1.0000 0.44390  0.05610  0.55610  Biso   1.000  B 
  B37      1.0000 0.44390  0.55610  0.05610  Biso   1.000  B 
  B38      1.0000 0.05610  0.94390  0.05610  Biso   1.000  B 
  B39      1.0000 0.05610  0.44390  0.55610  Biso   1.000  B 
  B40      1.0000 0.55610  0.94390  0.55610  Biso   1.000  B 
  B41      1.0000 0.55610  0.44390  0.05610  Biso   1.000  B 
  B42      1.0000 0.94390  0.94390  0.94390  Biso   1.000  B 
  B43      1.0000 0.94390  0.44390  0.44390  Biso   1.000  B 
  B44      1.0000 0.44390  0.94390  0.44390  Biso   1.000  B 
  B45      1.0000 0.44390  0.44390  0.94390  Biso   1.000  B 
  B46      1.0000 0.05610  0.05610  0.94390  Biso   1.000  B 
  B47      1.0000 0.05610  0.55610  0.44390  Biso   1.000  B 
  B48      1.0000 0.55610  0.05610  0.44390  Biso   1.000  B 
  B49      1.0000 0.15360  0.00000  0.84640  Biso   1.000  B 
  B50      1.0000 0.17046  0.00000  0.90471  Biso   1.000  B 
  B51      1.0000 0.09529  0.00000  0.82954  Biso   1.000  B 
  B52      1.0000 0.20500  0.00000  0.79500  Biso   1.000  B 
  B53      1.0000 0.18437  0.00000  0.73249  Biso   1.000  B 
  N1       1.0000 0.11064  0.98044  0.71351  Biso   1.000  N 
  B54      1.0000 0.22128  0.00000  0.63051  Biso   1.000  B 
  B55      1.0000 0.23249  0.00000  0.68442  Biso   1.000  B 
  B56      1.0000 0.29500  0.00000  0.70500  Biso   1.000  B 
  B57      1.0000 0.31558  0.00000  0.76751  Biso   1.000  B 
  B58      1.0000 0.26751  0.00000  0.81563  Biso   1.000  B 
  B59      1.0000 0.27872  0.00000  0.86954  Biso   1.000  B 
  B60      1.0000 0.36949  0.00000  0.77872  Biso   1.000  B 
  B61      1.0000 0.40470  0.00000  0.67046  Biso   1.000  B 
  B62      1.0000 0.34640  0.00000  0.65360  Biso   1.000  B 
  B63      1.0000 0.32954  0.00000  0.59529  Biso   1.000  B 
  H1       1.0000 0.10824  0.93236  0.69742  Biso   1.000  H 
  C1       1.0000 0.04007  0.00806  0.72098  Biso   1.000  C 
  H2       1.0000 0.05161  0.04957  0.74940  Biso   1.000  H 
  H3       1.0000 0.01355  0.97164  0.74773  Biso   1.000  H 
  C2       1.0000 0.97710  0.04259  0.67400  Biso   1.000  C 
  C3       1.0000 0.92362  0.04071  0.61530  Biso   1.000  C 
  C4       1.0000 0.02483  0.07442  0.63578  Biso   1.000  C 
  C5       1.0000 0.92044  0.07426  0.72131  Biso   1.000  C 
  H4       1.0000 0.90552  0.08853  0.60245  Biso   1.000  H 
  H5       1.0000 0.88320  0.01142  0.62829  Biso   1.000  H 
  H6       1.0000 0.94035  0.02491  0.57146  Biso   1.000  H 
  H7       1.0000 0.03118  0.03932  0.60173  Biso   1.000  H 
  H8       1.0000 0.07115  0.09184  0.65343  Biso   1.000  H 
  H9       1.0000 0.00174  0.11540  0.61732  Biso   1.000  H 
  H10      1.0000 0.91863  0.10495  0.76513  Biso   1.000  H 
  H11      1.0000 0.87353  0.09275  0.69993  Biso   1.000  H 
  H12      1.0000 0.92082  0.03106  0.73809  Biso   1.000  H 
  B64      1.0000 0.15360  0.50000  0.34640  Biso   1.000  B 
  B65      1.0000 0.17046  0.50000  0.40471  Biso   1.000  B 
  B66      1.0000 0.09529  0.50000  0.32954  Biso   1.000  B 
  B67      1.0000 0.20500  0.50000  0.29500  Biso   1.000  B 
  B68      1.0000 0.18437  0.50000  0.23249  Biso   1.000  B 
  N2       1.0000 0.11122  0.48027  0.21310  Biso   1.000  N 
  B69      1.0000 0.22128  0.50000  0.13051  Biso   1.000  B 
  B70      1.0000 0.23249  0.50000  0.18442  Biso   1.000  B 
  B71      1.0000 0.29500  0.50000  0.20500  Biso   1.000  B 
  B72      1.0000 0.31558  0.50000  0.26751  Biso   1.000  B 
  B73      1.0000 0.26751  0.50000  0.31563  Biso   1.000  B 
  B74      1.0000 0.27872  0.50000  0.36954  Biso   1.000  B 
  B75      1.0000 0.36949  0.50000  0.27872  Biso   1.000  B 
  B76      1.0000 0.40470  0.50000  0.17046  Biso   1.000  B 
  B77      1.0000 0.34640  0.50000  0.15360  Biso   1.000  B 
  B78      1.0000 0.32954  0.50000  0.09529  Biso   1.000  B 
  H13      1.0000 0.10953  0.43266  0.19563  Biso   1.000  H 
  C6       1.0000 0.04005  0.50673  0.21973  Biso   1.000  C 
  H14      1.0000 0.04941  0.54826  0.24926  Biso   1.000  H 
  H15      1.0000 0.01418  0.46941  0.24563  Biso   1.000  H 
  C7       1.0000 0.97782  0.54255  0.17335  Biso   1.000  C 
  C8       1.0000 0.92512  0.54103  0.11484  Biso   1.000  C 
  C9       1.0000 0.02627  0.57484  0.13651  Biso   1.000  C 
  C10      1.0000 0.92105  0.57337  0.22052  Biso   1.000  C 
  H16      1.0000 0.90740  0.58883  0.10203  Biso   1.000  H 
  H17      1.0000 0.88397  0.51206  0.12682  Biso   1.000  H 
  H18      1.0000 0.94199  0.52514  0.07125  Biso   1.000  H 
  H19      1.0000 0.03326  0.53966  0.10211  Biso   1.000  H 
  H20      1.0000 0.07296  0.59138  0.15438  Biso   1.000  H 
  H21      1.0000 0.00355  0.61575  0.11714  Biso   1.000  H 
  H22      1.0000 0.91983  0.60395  0.26457  Biso   1.000  H 
  H23      1.0000 0.87394  0.59150  0.19998  Biso   1.000  H 
  H24      1.0000 0.92185  0.53020  0.23792  Biso   1.000  H 
  B79      1.0000 0.65360  0.00000  0.34640  Biso   1.000  B 
  B80      1.0000 0.67046  0.00000  0.40471  Biso   1.000  B 
  B81      1.0000 0.59529  0.00000  0.32954  Biso   1.000  B 
  B82      1.0000 0.70500  0.00000  0.29500  Biso   1.000  B 
  B83      1.0000 0.68437  0.00000  0.23249  Biso   1.000  B 
  N3       1.0000 0.61140  0.98042  0.21268  Biso   1.000  N 
  B84      1.0000 0.72128  0.00000  0.13051  Biso   1.000  B 
  B85      1.0000 0.73248  0.00000  0.18442  Biso   1.000  B 
  B86      1.0000 0.79499  0.00000  0.20500  Biso   1.000  B 
  B87      1.0000 0.81558  0.00000  0.26751  Biso   1.000  B 
  B88      1.0000 0.76751  0.00000  0.31563  Biso   1.000  B 
  B89      1.0000 0.77872  0.00000  0.36954  Biso   1.000  B 
  B90      1.0000 0.86949  0.00000  0.27872  Biso   1.000  B 
  B91      1.0000 0.90470  0.00000  0.17046  Biso   1.000  B 
  B92      1.0000 0.84639  0.00000  0.15360  Biso   1.000  B 
  B93      1.0000 0.82953  0.00000  0.09529  Biso   1.000  B 
  H25      1.0000 0.60977  0.93233  0.19597  Biso   1.000  H 
  C11      1.0000 0.53995  0.00644  0.21903  Biso   1.000  C 
  H26      1.0000 0.54844  0.04778  0.24882  Biso   1.000  H 
  H27      1.0000 0.51463  0.96883  0.24475  Biso   1.000  H 
  C12      1.0000 0.47772  0.04275  0.17307  Biso   1.000  C 
  C13      1.0000 0.42508  0.04120  0.11442  Biso   1.000  C 
  C14      1.0000 0.52624  0.07551  0.13642  Biso   1.000  C 
  C15      1.0000 0.42096  0.07350  0.21969  Biso   1.000  C 
  H28      1.0000 0.40723  0.08931  0.10200  Biso   1.000  H 
  H29      1.0000 0.38387  0.01177  0.12603  Biso   1.000  H 
  H30      1.0000 0.44229  0.02576  0.07124  Biso   1.000  H 
  H31      1.0000 0.53315  0.04065  0.10207  Biso   1.000  H 
  H32      1.0000 0.57269  0.09142  0.15516  Biso   1.000  H 
  H33      1.0000 0.50405  0.11596  0.11642  Biso   1.000  H 
  H34      1.0000 0.42036  0.10398  0.26379  Biso   1.000  H 
  H35      1.0000 0.37364  0.09107  0.20004  Biso   1.000  H 
  H36      1.0000 0.42223  0.03048  0.23799  Biso   1.000  H 
  B94      1.0000 0.65360  0.50000  0.84640  Biso   1.000  B 
  B95      1.0000 0.67046  0.50000  0.90471  Biso   1.000  B 
  B96      1.0000 0.59529  0.50000  0.82954  Biso   1.000  B 
  B97      1.0000 0.70500  0.50000  0.79500  Biso   1.000  B 
  B98      1.0000 0.68437  0.50000  0.73249  Biso   1.000  B 
  N4       1.0000 0.61110  0.48037  0.71316  Biso   1.000  N 
  B99      1.0000 0.72128  0.50000  0.63051  Biso   1.000  B 
  B100     1.0000 0.73248  0.50000  0.68442  Biso   1.000  B 
  B101     1.0000 0.79499  0.50000  0.70500  Biso   1.000  B 
  B102     1.0000 0.81558  0.50000  0.76751  Biso   1.000  B 
  B103     1.0000 0.76751  0.50000  0.81563  Biso   1.000  B 
  B104     1.0000 0.77872  0.50000  0.86954  Biso   1.000  B 
  B105     1.0000 0.86949  0.50000  0.77872  Biso   1.000  B 
  B106     1.0000 0.90470  0.50000  0.67046  Biso   1.000  B 
  B107     1.0000 0.84639  0.50000  0.65360  Biso   1.000  B 
  B108     1.0000 0.82953  0.50000  0.59529  Biso   1.000  B 
  H37      1.0000 0.60928  0.43271  0.69589  Biso   1.000  H 
  C16      1.0000 0.53996  0.50693  0.71990  Biso   1.000  C 
  H38      1.0000 0.54950  0.54827  0.74953  Biso   1.000  H 
  H39      1.0000 0.51417  0.46961  0.74584  Biso   1.000  H 
  C17      1.0000 0.47766  0.54263  0.67340  Biso   1.000  C 
  C18      1.0000 0.42485  0.54100  0.61488  Biso   1.000  C 
  C19      1.0000 0.52600  0.57476  0.63633  Biso   1.000  C 
  C20      1.0000 0.42089  0.57358  0.72054  Biso   1.000  C 
  H40      1.0000 0.40703  0.58882  0.60198  Biso   1.000  H 
  H41      1.0000 0.38383  0.51194  0.62697  Biso   1.000  H 
  H42      1.0000 0.44163  0.52510  0.57122  Biso   1.000  H 
  H43      1.0000 0.53297  0.53957  0.60191  Biso   1.000  H 
  H44      1.0000 0.57272  0.59135  0.65412  Biso   1.000  H 
  H45      1.0000 0.50329  0.61574  0.61690  Biso   1.000  H 
  H46      1.0000 0.41970  0.60421  0.76451  Biso   1.000  H 
  H47      1.0000 0.37377  0.59166  0.69995  Biso   1.000  H 
  H48      1.0000 0.42169  0.53041  0.73790  Biso   1.000  H 
  B109     1.0000 0.84640  0.00000  0.84640  Biso   1.000  B 
  B110     1.0000 0.82954  0.00000  0.90471  Biso   1.000  B 
  B111     1.0000 0.90471  0.00000  0.82954  Biso   1.000  B 
  B112     1.0000 0.79500  0.00000  0.79500  Biso   1.000  B 
  B113     1.0000 0.81563  0.00000  0.73249  Biso   1.000  B 
  N5       1.0000 0.86800  0.94576  0.71231  Biso   1.000  N 
  B114     1.0000 0.77872  0.00000  0.63051  Biso   1.000  B 
  B115     1.0000 0.76752  0.00000  0.68442  Biso   1.000  B 
  B116     1.0000 0.70501  0.00000  0.70500  Biso   1.000  B 
  B117     1.0000 0.68442  0.00000  0.76751  Biso   1.000  B 
  B118     1.0000 0.73249  0.00000  0.81563  Biso   1.000  B 
  B119     1.0000 0.72128  0.00000  0.86954  Biso   1.000  B 
  B120     1.0000 0.63051  0.00000  0.77872  Biso   1.000  B 
  B121     1.0000 0.59530  0.00000  0.67046  Biso   1.000  B 
  B122     1.0000 0.65361  0.00000  0.65360  Biso   1.000  B 
  B123     1.0000 0.67047  0.00000  0.59529  Biso   1.000  B 
  H49      1.0000 0.87512  0.91795  0.75302  Biso   1.000  H 
  C21      1.0000 0.85965  0.89454  0.65501  Biso   1.000  C 
  H50      1.0000 0.80871  0.89178  0.63755  Biso   1.000  H 
  H51      1.0000 0.87175  0.84837  0.67518  Biso   1.000  H 
  C22      1.0000 0.91425  0.89279  0.59102  Biso   1.000  C 
  C23      1.0000 0.88098  0.93163  0.53232  Biso   1.000  C 
  C24      1.0000 0.94145  0.83376  0.55614  Biso   1.000  C 
  C25      1.0000 0.97801  0.91714  0.61536  Biso   1.000  C 
  H52      1.0000 0.86286  0.90240  0.49016  Biso   1.000  H 
  H53      1.0000 0.91755  0.96284  0.50712  Biso   1.000  H 
  H54      1.0000 0.84282  0.96406  0.55322  Biso   1.000  H 
  H55      1.0000 0.93765  0.83684  0.50445  Biso   1.000  H 
  H56      1.0000 0.92066  0.79155  0.57964  Biso   1.000  H 
  H57      1.0000 0.99532  0.82534  0.55308  Biso   1.000  H 
  H58      1.0000 0.01676  0.88299  0.62715  Biso   1.000  H 
  H59      1.0000 0.00003  0.95165  0.58584  Biso   1.000  H 
  H60      1.0000 0.96640  0.93867  0.65726  Biso   1.000  H 
  B124     1.0000 0.84640  0.50000  0.34640  Biso   1.000  B 
  B125     1.0000 0.82954  0.50000  0.40471  Biso   1.000  B 
  B126     1.0000 0.90471  0.50000  0.32954  Biso   1.000  B 
  B127     1.0000 0.79500  0.50000  0.29500  Biso   1.000  B 
  B128     1.0000 0.81563  0.50000  0.23249  Biso   1.000  B 
  N6       1.0000 0.86808  0.44629  0.21189  Biso   1.000  N 
  B129     1.0000 0.77872  0.50000  0.13051  Biso   1.000  B 
  B130     1.0000 0.76752  0.50000  0.18442  Biso   1.000  B 
  B131     1.0000 0.70501  0.50000  0.20500  Biso   1.000  B 
  B132     1.0000 0.68442  0.50000  0.26751  Biso   1.000  B 
  B133     1.0000 0.73249  0.50000  0.31563  Biso   1.000  B 
  B134     1.0000 0.72128  0.50000  0.36954  Biso   1.000  B 
  B135     1.0000 0.63051  0.50000  0.27872  Biso   1.000  B 
  B136     1.0000 0.59530  0.50000  0.17046  Biso   1.000  B 
  B137     1.0000 0.65361  0.50000  0.15360  Biso   1.000  B 
  B138     1.0000 0.67047  0.50000  0.09529  Biso   1.000  B 
  H61      1.0000 0.87471  0.41793  0.25229  Biso   1.000  H 
  C26      1.0000 0.85890  0.39553  0.15392  Biso   1.000  C 
  H62      1.0000 0.80828  0.39385  0.13524  Biso   1.000  H 
  H63      1.0000 0.86988  0.34893  0.17360  Biso   1.000  H 
  C27      1.0000 0.91410  0.39325  0.09024  Biso   1.000  C 
  C28      1.0000 0.88196  0.43257  0.03136  Biso   1.000  C 
  C29      1.0000 0.94168  0.33411  0.05547  Biso   1.000  C 
  C30      1.0000 0.97794  0.41698  0.11579  Biso   1.000  C 
  H64      1.0000 0.86298  0.40409  0.98900  Biso   1.000  H 
  H65      1.0000 0.91950  0.46299  0.00621  Biso   1.000  H 
  H66      1.0000 0.84438  0.46562  0.05214  Biso   1.000  H 
  H67      1.0000 0.93755  0.33720  0.00363  Biso   1.000  H 
  H68      1.0000 0.92086  0.29210  0.07943  Biso   1.000  H 
  H69      1.0000 0.99546  0.32503  0.05289  Biso   1.000  H 
  H70      1.0000 0.01624  0.38251  0.12800  Biso   1.000  H 
  H71      1.0000 0.00025  0.45236  0.08600  Biso   1.000  H 
  H72      1.0000 0.96484  0.43854  0.15738  Biso   1.000  H 
  B139     1.0000 0.34640  0.00000  0.34640  Biso   1.000  B 
  B140     1.0000 0.32954  0.00000  0.40471  Biso   1.000  B 
  B141     1.0000 0.40471  0.00000  0.32954  Biso   1.000  B 
  B142     1.0000 0.29500  0.00000  0.29500  Biso   1.000  B 
  B143     1.0000 0.31563  0.00000  0.23249  Biso   1.000  B 
  N7       1.0000 0.36820  0.94660  0.21173  Biso   1.000  N 
  B144     1.0000 0.27872  0.00000  0.13051  Biso   1.000  B 
  B145     1.0000 0.26751  0.00000  0.18442  Biso   1.000  B 
  B146     1.0000 0.20500  0.00000  0.20500  Biso   1.000  B 
  B147     1.0000 0.18442  0.00000  0.26751  Biso   1.000  B 
  B148     1.0000 0.23249  0.00000  0.31563  Biso   1.000  B 
  B149     1.0000 0.22128  0.00000  0.36954  Biso   1.000  B 
  B150     1.0000 0.13051  0.00000  0.27872  Biso   1.000  B 
  B151     1.0000 0.09530  0.00000  0.17046  Biso   1.000  B 
  B152     1.0000 0.15360  0.00000  0.15360  Biso   1.000  B 
  B153     1.0000 0.17046  0.00000  0.09529  Biso   1.000  B 
  H73      1.0000 0.37420  0.91793  0.25199  Biso   1.000  H 
  C31      1.0000 0.35855  0.89608  0.15307  Biso   1.000  C 
  H74      1.0000 0.30825  0.89542  0.13331  Biso   1.000  H 
  H75      1.0000 0.36864  0.84923  0.17260  Biso   1.000  H 
  C32      1.0000 0.41417  0.89329  0.08956  Biso   1.000  C 
  C33      1.0000 0.38266  0.93284  0.03025  Biso   1.000  C 
  C34      1.0000 0.44232  0.83437  0.05470  Biso   1.000  C 
  C35      1.0000 0.47794  0.91709  0.11611  Biso   1.000  C 
  H76      1.0000 0.36311  0.90470  0.98832  Biso   1.000  H 
  H77      1.0000 0.42070  0.96283  0.00446  Biso   1.000  H 
  H78      1.0000 0.34552  0.96603  0.05082  Biso   1.000  H 
  H79      1.0000 0.43790  0.83736  0.00261  Biso   1.000  H 
  H80      1.0000 0.42129  0.79229  0.07892  Biso   1.000  H 
  H81      1.0000 0.49587  0.82521  0.05307  Biso   1.000  H 
  H82      1.0000 0.51616  0.88287  0.12844  Biso   1.000  H 
  H83      1.0000 0.50014  0.95303  0.08634  Biso   1.000  H 
  H84      1.0000 0.46389  0.93834  0.15748  Biso   1.000  H 
  B154     1.0000 0.34640  0.50000  0.84640  Biso   1.000  B 
  B155     1.0000 0.32954  0.50000  0.90471  Biso   1.000  B 
  B156     1.0000 0.40471  0.50000  0.82954  Biso   1.000  B 
  B157     1.0000 0.29500  0.50000  0.79500  Biso   1.000  B 
  B158     1.0000 0.31563  0.50000  0.73249  Biso   1.000  B 
  N8       1.0000 0.36803  0.44621  0.71197  Biso   1.000  N 
  B159     1.0000 0.27872  0.50000  0.63051  Biso   1.000  B 
  B160     1.0000 0.26751  0.50000  0.68442  Biso   1.000  B 
  B161     1.0000 0.20500  0.50000  0.70500  Biso   1.000  B 
  B162     1.0000 0.18442  0.50000  0.76751  Biso   1.000  B 
  B163     1.0000 0.23249  0.50000  0.81563  Biso   1.000  B 
  B164     1.0000 0.22128  0.50000  0.86954  Biso   1.000  B 
  B165     1.0000 0.13051  0.50000  0.77872  Biso   1.000  B 
  B166     1.0000 0.09530  0.50000  0.67046  Biso   1.000  B 
  B167     1.0000 0.15360  0.50000  0.65360  Biso   1.000  B 
  B168     1.0000 0.17046  0.50000  0.59529  Biso   1.000  B 
  H85      1.0000 0.37461  0.41790  0.75244  Biso   1.000  H 
  C36      1.0000 0.35892  0.39540  0.65411  Biso   1.000  C 
  H86      1.0000 0.30827  0.39378  0.63548  Biso   1.000  H 
  H87      1.0000 0.36988  0.34880  0.67388  Biso   1.000  H 
  C37      1.0000 0.41412  0.39312  0.59032  Biso   1.000  C 
  C38      1.0000 0.38187  0.43234  0.53149  Biso   1.000  C 
  C39      1.0000 0.44179  0.33399  0.55558  Biso   1.000  C 
  C40      1.0000 0.47790  0.41705  0.61581  Biso   1.000  C 
  H88      1.0000 0.36317  0.40355  0.48914  Biso   1.000  H 
  H89      1.0000 0.41914  0.46313  0.50638  Biso   1.000  H 
  H90      1.0000 0.34409  0.46515  0.55226  Biso   1.000  H 
  H91      1.0000 0.43774  0.33710  0.50372  Biso   1.000  H 
  H92      1.0000 0.42102  0.29185  0.57929  Biso   1.000  H 
  H93      1.0000 0.49562  0.32511  0.55295  Biso   1.000  H 
  H94      1.0000 0.51632  0.38271  0.62799  Biso   1.000  H 
  H95      1.0000 0.50012  0.45232  0.58593  Biso   1.000  H 
  H96      1.0000 0.46497  0.43861  0.65730  Biso   1.000  H 
  B169     1.0000 0.84640  0.15360  0.00000  Biso   1.000  B 
  B170     1.0000 0.90471  0.17046  0.00000  Biso   1.000  B 
  B171     1.0000 0.82954  0.09529  0.00000  Biso   1.000  B 
  B172     1.0000 0.79500  0.20500  0.00000  Biso   1.000  B 
  B173     1.0000 0.73249  0.18437  0.00000  Biso   1.000  B 
  N9       1.0000 0.71276  0.11141  0.97985  Biso   1.000  N 
  B174     1.0000 0.63051  0.22128  0.00000  Biso   1.000  B 
  B175     1.0000 0.68442  0.23249  0.00000  Biso   1.000  B 
  B176     1.0000 0.70500  0.29500  0.00000  Biso   1.000  B 
  B177     1.0000 0.76751  0.31558  0.00000  Biso   1.000  B 
  B178     1.0000 0.81563  0.26751  0.00000  Biso   1.000  B 
  B179     1.0000 0.86954  0.27872  0.00000  Biso   1.000  B 
  B180     1.0000 0.77872  0.36949  0.00000  Biso   1.000  B 
  B181     1.0000 0.67046  0.40470  0.00000  Biso   1.000  B 
  B182     1.0000 0.65360  0.34640  0.00000  Biso   1.000  B 
  B183     1.0000 0.59529  0.32954  0.00000  Biso   1.000  B 
  H97      1.0000 0.69822  0.11040  0.93091  Biso   1.000  H 
  C41      1.0000 0.71985  0.04061  0.00644  Biso   1.000  C 
  H98      1.0000 0.75034  0.04876  0.04687  Biso   1.000  H 
  H99      1.0000 0.74550  0.01451  0.96914  Biso   1.000  H 
  C42      1.0000 0.67382  0.97822  0.04228  Biso   1.000  C 
  C43      1.0000 0.61467  0.92470  0.04128  Biso   1.000  C 
  C44      1.0000 0.63651  0.02635  0.07464  Biso   1.000  C 
  C45      1.0000 0.72055  0.92114  0.07339  Biso   1.000  C 
  H100     1.0000 0.60208  0.90761  0.08892  Biso   1.000  H 
  H101     1.0000 0.62698  0.88356  0.01270  Biso   1.000  H 
  H102     1.0000 0.57087  0.94137  0.02579  Biso   1.000  H 
  H103     1.0000 0.60182  0.03280  0.04091  Biso   1.000  H 
  H104     1.0000 0.65518  0.07271  0.09094  Biso   1.000  H 
  H105     1.0000 0.61815  0.00372  0.11586  Biso   1.000  H 
  H106     1.0000 0.76474  0.92034  0.10314  Biso   1.000  H 
  H107     1.0000 0.69974  0.87430  0.09182  Biso   1.000  H 
  H108     1.0000 0.73764  0.92178  0.02988  Biso   1.000  H 
  B184     1.0000 0.84640  0.65360  0.50000  Biso   1.000  B 
  B185     1.0000 0.90471  0.67046  0.50000  Biso   1.000  B 
  B186     1.0000 0.82954  0.59529  0.50000  Biso   1.000  B 
  B187     1.0000 0.79500  0.70500  0.50000  Biso   1.000  B 
  B188     1.0000 0.73249  0.68437  0.50000  Biso   1.000  B 
  N10      1.0000 0.71290  0.61131  0.48032  Biso   1.000  N 
  B189     1.0000 0.63051  0.72128  0.50000  Biso   1.000  B 
  B190     1.0000 0.68442  0.73248  0.50000  Biso   1.000  B 
  B191     1.0000 0.70500  0.79499  0.50000  Biso   1.000  B 
  B192     1.0000 0.76751  0.81558  0.50000  Biso   1.000  B 
  B193     1.0000 0.81563  0.76751  0.50000  Biso   1.000  B 
  B194     1.0000 0.86954  0.77872  0.50000  Biso   1.000  B 
  B195     1.0000 0.77872  0.86949  0.50000  Biso   1.000  B 
  B196     1.0000 0.67046  0.90470  0.50000  Biso   1.000  B 
  B197     1.0000 0.65360  0.84639  0.50000  Biso   1.000  B 
  B198     1.0000 0.59529  0.82953  0.50000  Biso   1.000  B 
  H109     1.0000 0.69616  0.60978  0.43234  Biso   1.000  H 
  C46      1.0000 0.71952  0.54000  0.50656  Biso   1.000  C 
  H110     1.0000 0.74954  0.54870  0.54774  Biso   1.000  H 
  H111     1.0000 0.74519  0.51438  0.46904  Biso   1.000  H 
  C47      1.0000 0.67332  0.47784  0.54258  Biso   1.000  C 
  C48      1.0000 0.61464  0.42506  0.54114  Biso   1.000  C 
  C49      1.0000 0.63651  0.52626  0.57496  Biso   1.000  C 
  C50      1.0000 0.72021  0.42099  0.57341  Biso   1.000  C 
  H112     1.0000 0.60196  0.40748  0.58905  Biso   1.000  H 
  H113     1.0000 0.62645  0.38383  0.51214  Biso   1.000  H 
  H114     1.0000 0.57122  0.44188  0.52543  Biso   1.000  H 
  H115     1.0000 0.60202  0.53318  0.54012  Biso   1.000  H 
  H116     1.0000 0.65460  0.57299  0.59104  Biso   1.000  H 
  H117     1.0000 0.61696  0.50372  0.61593  Biso   1.000  H 
  H118     1.0000 0.76428  0.42009  0.60384  Biso   1.000  H 
  H119     1.0000 0.69996  0.37374  0.59130  Biso   1.000  H 
  H120     1.0000 0.73790  0.42201  0.53027  Biso   1.000  H 
  B199     1.0000 0.34640  0.15360  0.50000  Biso   1.000  B 
  B200     1.0000 0.40471  0.17046  0.50000  Biso   1.000  B 
  B201     1.0000 0.32954  0.09529  0.50000  Biso   1.000  B 
  B202     1.0000 0.29500  0.20500  0.50000  Biso   1.000  B 
  B203     1.0000 0.23249  0.18437  0.50000  Biso   1.000  B 
  N11      1.0000 0.21284  0.11132  0.48067  Biso   1.000  N 
  B204     1.0000 0.13051  0.22128  0.50000  Biso   1.000  B 
  B205     1.0000 0.18442  0.23249  0.50000  Biso   1.000  B 
  B206     1.0000 0.20500  0.29500  0.50000  Biso   1.000  B 
  B207     1.0000 0.26751  0.31558  0.50000  Biso   1.000  B 
  B208     1.0000 0.31563  0.26751  0.50000  Biso   1.000  B 
  B209     1.0000 0.36954  0.27872  0.50000  Biso   1.000  B 
  B210     1.0000 0.27872  0.36949  0.50000  Biso   1.000  B 
  B211     1.0000 0.17046  0.40470  0.50000  Biso   1.000  B 
  B212     1.0000 0.15360  0.34640  0.50000  Biso   1.000  B 
  B213     1.0000 0.09529  0.32954  0.50000  Biso   1.000  B 
  H121     1.0000 0.19484  0.10921  0.43327  Biso   1.000  H 
  C51      1.0000 0.21903  0.03989  0.50673  Biso   1.000  C 
  H122     1.0000 0.24839  0.04960  0.54829  Biso   1.000  H 
  H123     1.0000 0.24483  0.01446  0.46944  Biso   1.000  H 
  C52      1.0000 0.17284  0.97748  0.54283  Biso   1.000  C 
  C53      1.0000 0.11464  0.92507  0.54079  Biso   1.000  C 
  C54      1.0000 0.13612  0.02589  0.57568  Biso   1.000  C 
  C55      1.0000 0.21990  0.92092  0.57344  Biso   1.000  C 
  H124     1.0000 0.10207  0.90661  0.58865  Biso   1.000  H 
  H125     1.0000 0.12651  0.88420  0.51115  Biso   1.000  H 
  H126     1.0000 0.07119  0.94275  0.52536  Biso   1.000  H 
  H127     1.0000 0.10206  0.03302  0.54012  Biso   1.000  H 
  H128     1.0000 0.15508  0.07215  0.59258  Biso   1.000  H 
  H129     1.0000 0.11570  0.00344  0.61554  Biso   1.000  H 
  H130     1.0000 0.26409  0.92005  0.60417  Biso   1.000  H 
  H131     1.0000 0.19999  0.87377  0.59122  Biso   1.000  H 
  H132     1.0000 0.23792  0.92188  0.53045  Biso   1.000  H 
  B214     1.0000 0.34640  0.65360  0.00000  Biso   1.000  B 
  B215     1.0000 0.40471  0.67046  0.00000  Biso   1.000  B 
  B216     1.0000 0.32954  0.59529  0.00000  Biso   1.000  B 
  B217     1.0000 0.29500  0.70500  0.00000  Biso   1.000  B 
  B218     1.0000 0.23249  0.68437  0.00000  Biso   1.000  B 
  N12      1.0000 0.21291  0.61138  0.98017  Biso   1.000  N 
  B219     1.0000 0.13051  0.72128  0.00000  Biso   1.000  B 
  B220     1.0000 0.18442  0.73248  0.00000  Biso   1.000  B 
  B221     1.0000 0.20500  0.79499  0.00000  Biso   1.000  B 
  B222     1.0000 0.26751  0.81558  0.00000  Biso   1.000  B 
  B223     1.0000 0.31563  0.76751  0.00000  Biso   1.000  B 
  B224     1.0000 0.36954  0.77872  0.00000  Biso   1.000  B 
  B225     1.0000 0.27872  0.86949  0.00000  Biso   1.000  B 
  B226     1.0000 0.17046  0.90470  0.00000  Biso   1.000  B 
  B227     1.0000 0.15360  0.84639  0.00000  Biso   1.000  B 
  B228     1.0000 0.09529  0.82953  0.00000  Biso   1.000  B 
  H133     1.0000 0.19608  0.61005  0.93219  Biso   1.000  H 
  C56      1.0000 0.21949  0.54013  0.00640  Biso   1.000  C 
  H134     1.0000 0.24946  0.54866  0.04767  Biso   1.000  H 
  H135     1.0000 0.24516  0.51431  0.96886  Biso   1.000  H 
  C57      1.0000 0.17334  0.47805  0.04247  Biso   1.000  C 
  C58      1.0000 0.11463  0.42527  0.04120  Biso   1.000  C 
  C59      1.0000 0.13669  0.52654  0.07494  Biso   1.000  C 
  C60      1.0000 0.22032  0.42115  0.07323  Biso   1.000  C 
  H136     1.0000 0.10202  0.40782  0.08903  Biso   1.000  H 
  H137     1.0000 0.12643  0.38397  0.01232  Biso   1.000  H 
  H138     1.0000 0.07122  0.44212  0.02549  Biso   1.000  H 
  H139     1.0000 0.10220  0.53341  0.04015  Biso   1.000  H 
  H140     1.0000 0.15485  0.57327  0.09102  Biso   1.000  H 
  H141     1.0000 0.11737  0.50395  0.11594  Biso   1.000  H 
  H142     1.0000 0.26444  0.42019  0.10357  Biso   1.000  H 
  H143     1.0000 0.19994  0.37400  0.09126  Biso   1.000  H 
  H144     1.0000 0.23791  0.42208  0.03004  Biso   1.000  H 
  B229     1.0000 0.84640  0.84640  0.00000  Biso   1.000  B 
  B230     1.0000 0.90471  0.82954  0.00000  Biso   1.000  B 
  B231     1.0000 0.82954  0.90471  0.00000  Biso   1.000  B 
  B232     1.0000 0.79500  0.79500  0.00000  Biso   1.000  B 
  B233     1.0000 0.73249  0.81563  0.00000  Biso   1.000  B 
  N13      1.0000 0.71184  0.86815  0.94621  Biso   1.000  N 
  B234     1.0000 0.63051  0.77872  0.00000  Biso   1.000  B 
  B235     1.0000 0.68442  0.76752  0.00000  Biso   1.000  B 
  B236     1.0000 0.70500  0.70501  0.00000  Biso   1.000  B 
  B237     1.0000 0.76751  0.68442  0.00000  Biso   1.000  B 
  B238     1.0000 0.81563  0.73249  0.00000  Biso   1.000  B 
  B239     1.0000 0.86954  0.72128  0.00000  Biso   1.000  B 
  B240     1.0000 0.77872  0.63051  0.00000  Biso   1.000  B 
  B241     1.0000 0.67046  0.59530  0.00000  Biso   1.000  B 
  B242     1.0000 0.65360  0.65361  0.00000  Biso   1.000  B 
  B243     1.0000 0.59529  0.67047  0.00000  Biso   1.000  B 
  H145     1.0000 0.75220  0.87445  0.91776  Biso   1.000  H 
  C61      1.0000 0.65369  0.85859  0.89548  Biso   1.000  C 
  H146     1.0000 0.63518  0.80777  0.89394  Biso   1.000  H 
  H147     1.0000 0.67332  0.86919  0.84892  Biso   1.000  H 
  C62      1.0000 0.59009  0.91461  0.89297  Biso   1.000  C 
  C63      1.0000 0.53127  0.88231  0.93240  Biso   1.000  C 
  C64      1.0000 0.55475  0.94221  0.83454  Biso   1.000  C 
  C65      1.0000 0.61573  0.97833  0.91668  Biso   1.000  C 
  H148     1.0000 0.48980  0.86258  0.90462  Biso   1.000  H 
  H149     1.0000 0.50604  0.92015  0.96211  Biso   1.000  H 
  H150     1.0000 0.55262  0.84542  0.96608  Biso   1.000  H 
  H151     1.0000 0.50290  0.93727  0.83719  Biso   1.000  H 
  H152     1.0000 0.57876  0.92129  0.79277  Biso   1.000  H 
  H153     1.0000 0.55160  0.99595  0.82483  Biso   1.000  H 
  H154     1.0000 0.62820  0.01707  0.88299  Biso   1.000  H 
  H155     1.0000 0.58642  0.00078  0.95267  Biso   1.000  H 
  H156     1.0000 0.65742  0.96402  0.93829  Biso   1.000  H 
  B244     1.0000 0.84640  0.34640  0.50000  Biso   1.000  B 
  B245     1.0000 0.90471  0.32954  0.50000  Biso   1.000  B 
  B246     1.0000 0.82954  0.40471  0.50000  Biso   1.000  B 
  B247     1.0000 0.79500  0.29500  0.50000  Biso   1.000  B 
  B248     1.0000 0.73249  0.31563  0.50000  Biso   1.000  B 
  N14      1.0000 0.71184  0.36813  0.44640  Biso   1.000  N 
  B249     1.0000 0.63051  0.27872  0.50000  Biso   1.000  B 
  B250     1.0000 0.68442  0.26751  0.50000  Biso   1.000  B 
  B251     1.0000 0.70500  0.20500  0.50000  Biso   1.000  B 
  B252     1.0000 0.76751  0.18442  0.50000  Biso   1.000  B 
  B253     1.0000 0.81563  0.23249  0.50000  Biso   1.000  B 
  B254     1.0000 0.86954  0.22128  0.50000  Biso   1.000  B 
  B255     1.0000 0.77872  0.13051  0.50000  Biso   1.000  B 
  B256     1.0000 0.67046  0.09530  0.50000  Biso   1.000  B 
  B257     1.0000 0.65360  0.15360  0.50000  Biso   1.000  B 
  B258     1.0000 0.59529  0.17046  0.50000  Biso   1.000  B 
  H157     1.0000 0.75218  0.37439  0.41789  Biso   1.000  H 
  C66      1.0000 0.65359  0.35868  0.39575  Biso   1.000  C 
  H158     1.0000 0.63452  0.30812  0.39452  Biso   1.000  H 
  H159     1.0000 0.67318  0.36926  0.34905  Biso   1.000  H 
  C67      1.0000 0.58992  0.41423  0.39318  Biso   1.000  C 
  C68      1.0000 0.53090  0.38231  0.43259  Biso   1.000  C 
  C69      1.0000 0.55511  0.44207  0.33420  Biso   1.000  C 
  C70      1.0000 0.61588  0.47801  0.41696  Biso   1.000  C 
  H160     1.0000 0.48883  0.36310  0.40426  Biso   1.000  H 
  H161     1.0000 0.50567  0.42002  0.46287  Biso   1.000  H 
  H162     1.0000 0.55173  0.34496  0.46579  Biso   1.000  H 
  H163     1.0000 0.50318  0.43768  0.33720  Biso   1.000  H 
  H164     1.0000 0.57908  0.42124  0.29216  Biso   1.000  H 
  H165     1.0000 0.55268  0.49585  0.32497  Biso   1.000  H 
  H166     1.0000 0.62825  0.51631  0.38273  Biso   1.000  H 
  H167     1.0000 0.58609  0.50027  0.45267  Biso   1.000  H 
  H168     1.0000 0.65729  0.46428  0.43848  Biso   1.000  H 
  B259     1.0000 0.34640  0.84640  0.50000  Biso   1.000  B 
  B260     1.0000 0.40471  0.82954  0.50000  Biso   1.000  B 
  B261     1.0000 0.32954  0.90471  0.50000  Biso   1.000  B 
  B262     1.0000 0.29500  0.79500  0.50000  Biso   1.000  B 
  B263     1.0000 0.23249  0.81563  0.50000  Biso   1.000  B 
  N15      1.0000 0.21186  0.86800  0.44643  Biso   1.000  N 
  B264     1.0000 0.13051  0.77872  0.50000  Biso   1.000  B 
  B265     1.0000 0.18442  0.76752  0.50000  Biso   1.000  B 
  B266     1.0000 0.20500  0.70501  0.50000  Biso   1.000  B 
  B267     1.0000 0.26751  0.68442  0.50000  Biso   1.000  B 
  B268     1.0000 0.31563  0.73249  0.50000  Biso   1.000  B 
  B269     1.0000 0.36954  0.72128  0.50000  Biso   1.000  B 
  B270     1.0000 0.27872  0.63051  0.50000  Biso   1.000  B 
  B271     1.0000 0.17046  0.59530  0.50000  Biso   1.000  B 
  B272     1.0000 0.15360  0.65361  0.50000  Biso   1.000  B 
  B273     1.0000 0.09529  0.67047  0.50000  Biso   1.000  B 
  H169     1.0000 0.25221  0.87450  0.41790  Biso   1.000  H 
  C71      1.0000 0.15345  0.85868  0.39590  Biso   1.000  C 
  H170     1.0000 0.13376  0.80850  0.39537  Biso   1.000  H 
  H171     1.0000 0.17328  0.86872  0.34908  Biso   1.000  H 
  C72      1.0000 0.08996  0.91383  0.39337  Biso   1.000  C 
  C73      1.0000 0.03090  0.88221  0.43276  Biso   1.000  C 
  C74      1.0000 0.05528  0.94188  0.33406  Biso   1.000  C 
  C75      1.0000 0.11621  0.97754  0.41717  Biso   1.000  C 
  H172     1.0000 0.98837  0.86319  0.40423  Biso   1.000  H 
  H173     1.0000 0.00502  0.91976  0.46312  Biso   1.000  H 
  H174     1.0000 0.05121  0.84442  0.46536  Biso   1.000  H 
  H175     1.0000 0.00328  0.93786  0.33727  Biso   1.000  H 
  H176     1.0000 0.07917  0.92076  0.29177  Biso   1.000  H 
  H177     1.0000 0.05390  0.99535  0.32562  Biso   1.000  H 
  H178     1.0000 0.12850  0.01586  0.38275  Biso   1.000  H 
  H179     1.0000 0.08636  0.99992  0.45258  Biso   1.000  H 
  H180     1.0000 0.15760  0.96452  0.43829  Biso   1.000  H 
  B274     1.0000 0.34640  0.34640  0.00000  Biso   1.000  B 
  B275     1.0000 0.40471  0.32954  0.00000  Biso   1.000  B 
  B276     1.0000 0.32954  0.40471  0.00000  Biso   1.000  B 
  B277     1.0000 0.29500  0.29500  0.00000  Biso   1.000  B 
  B278     1.0000 0.23249  0.31563  0.00000  Biso   1.000  B 
  N16      1.0000 0.21180  0.36818  0.94641  Biso   1.000  N 
  B279     1.0000 0.13051  0.27872  0.00000  Biso   1.000  B 
  B280     1.0000 0.18442  0.26751  0.00000  Biso   1.000  B 
  B281     1.0000 0.20500  0.20500  0.00000  Biso   1.000  B 
  B282     1.0000 0.26751  0.18442  0.00000  Biso   1.000  B 
  B283     1.0000 0.31563  0.23249  0.00000  Biso   1.000  B 
  B284     1.0000 0.36954  0.22128  0.00000  Biso   1.000  B 
  B285     1.0000 0.27872  0.13051  0.00000  Biso   1.000  B 
  B286     1.0000 0.17046  0.09530  0.00000  Biso   1.000  B 
  B287     1.0000 0.15360  0.15360  0.00000  Biso   1.000  B 
  B288     1.0000 0.09529  0.17046  0.00000  Biso   1.000  B 
  H181     1.0000 0.25211  0.37455  0.91789  Biso   1.000  H 
  C76      1.0000 0.15358  0.35872  0.89576  Biso   1.000  C 
  H182     1.0000 0.13467  0.30813  0.89429  Biso   1.000  H 
  H183     1.0000 0.17311  0.36947  0.84909  Biso   1.000  H 
  C77      1.0000 0.08997  0.41424  0.89324  Biso   1.000  C 
  C78      1.0000 0.03100  0.38228  0.93271  Biso   1.000  C 
  C79      1.0000 0.05504  0.44195  0.83431  Biso   1.000  C 
  C80      1.0000 0.11583  0.47807  0.91689  Biso   1.000  C 
  H184     1.0000 0.98894  0.36286  0.90462  Biso   1.000  H 
  H185     1.0000 0.00577  0.42017  0.96271  Biso   1.000  H 
  H186     1.0000 0.05191  0.34507  0.96609  Biso   1.000  H 
  H187     1.0000 0.00313  0.43746  0.83731  Biso   1.000  H 
  H188     1.0000 0.07921  0.42105  0.79243  Biso   1.000  H 
  H189     1.0000 0.05252  0.49571  0.82483  Biso   1.000  H 
  H190     1.0000 0.12818  0.51632  0.88259  Biso   1.000  H 
  H191     1.0000 0.08623  0.50046  0.95264  Biso   1.000  H 
  H192     1.0000 0.15739  0.46419  0.93841  Biso   1.000  H 
  B289     1.0000 0.00000  0.84640  0.15360  Biso   1.000  B 
  B290     1.0000 0.00000  0.90471  0.17046  Biso   1.000  B 
  B291     1.0000 0.00000  0.82954  0.09529  Biso   1.000  B 
  B292     1.0000 0.00000  0.79500  0.20500  Biso   1.000  B 
  B293     1.0000 0.00000  0.73249  0.18437  Biso   1.000  B 
  N17      1.0000 0.98012  0.71308  0.11127  Biso   1.000  N 
  B294     1.0000 0.00000  0.63051  0.22128  Biso   1.000  B 
  B295     1.0000 0.00000  0.68442  0.23249  Biso   1.000  B 
  B296     1.0000 0.00000  0.70500  0.29500  Biso   1.000  B 
  B297     1.0000 0.00000  0.76751  0.31558  Biso   1.000  B 
  B298     1.0000 0.00000  0.81563  0.26751  Biso   1.000  B 
  B299     1.0000 0.00000  0.86954  0.27872  Biso   1.000  B 
  B300     1.0000 0.00000  0.77872  0.36949  Biso   1.000  B 
  B301     1.0000 0.00000  0.67046  0.40470  Biso   1.000  B 
  B302     1.0000 0.00000  0.65360  0.34640  Biso   1.000  B 
  B303     1.0000 0.00000  0.59529  0.32954  Biso   1.000  B 
  H193     1.0000 0.93217  0.69624  0.10983  Biso   1.000  H 
  C81      1.0000 0.00667  0.71986  0.04020  Biso   1.000  C 
  H194     1.0000 0.04793  0.74965  0.04921  Biso   1.000  H 
  H195     1.0000 0.96932  0.74567  0.01420  Biso   1.000  H 
  C82      1.0000 0.04242  0.67354  0.97794  Biso   1.000  C 
  C83      1.0000 0.04115  0.61482  0.92501  Biso   1.000  C 
  C84      1.0000 0.07470  0.63660  0.02632  Biso   1.000  C 
  C85      1.0000 0.07337  0.72062  0.92107  Biso   1.000  C 
  H196     1.0000 0.08885  0.60205  0.90752  Biso   1.000  H 
  H197     1.0000 0.01229  0.62691  0.88380  Biso   1.000  H 
  H198     1.0000 0.02534  0.57121  0.94173  Biso   1.000  H 
  H199     1.0000 0.03991  0.60210  0.03309  Biso   1.000  H 
  H200     1.0000 0.09101  0.65459  0.07305  Biso   1.000  H 
  H201     1.0000 0.11581  0.61761  0.00356  Biso   1.000  H 
  H202     1.0000 0.10373  0.76469  0.91993  Biso   1.000  H 
  H203     1.0000 0.09162  0.69991  0.87403  Biso   1.000  H 
  H204     1.0000 0.03012  0.73791  0.92182  Biso   1.000  H 
  B304     1.0000 0.00000  0.34640  0.65360  Biso   1.000  B 
  B305     1.0000 0.00000  0.40471  0.67046  Biso   1.000  B 
  B306     1.0000 0.00000  0.32954  0.59529  Biso   1.000  B 
  B307     1.0000 0.00000  0.29500  0.70500  Biso   1.000  B 
  B308     1.0000 0.00000  0.23249  0.68437  Biso   1.000  B 
  N18      1.0000 0.97952  0.21246  0.61170  Biso   1.000  N 
  B309     1.0000 0.00000  0.13051  0.72128  Biso   1.000  B 
  B310     1.0000 0.00000  0.18442  0.73248  Biso   1.000  B 
  B311     1.0000 0.00000  0.20500  0.79499  Biso   1.000  B 
  B312     1.0000 0.00000  0.26751  0.81558  Biso   1.000  B 
  B313     1.0000 0.00000  0.31563  0.76751  Biso   1.000  B 
  B314     1.0000 0.00000  0.36954  0.77872  Biso   1.000  B 
  B315     1.0000 0.00000  0.27872  0.86949  Biso   1.000  B 
  B316     1.0000 0.00000  0.17046  0.90470  Biso   1.000  B 
  B317     1.0000 0.00000  0.15360  0.84639  Biso   1.000  B 
  B318     1.0000 0.00000  0.09529  0.82953  Biso   1.000  B 
  H205     1.0000 0.93011  0.19929  0.61084  Biso   1.000  H 
  C86      1.0000 0.00589  0.21917  0.54077  Biso   1.000  C 
  H206     1.0000 0.04644  0.24987  0.54810  Biso   1.000  H 
  H207     1.0000 0.96854  0.24480  0.51469  Biso   1.000  H 
  C87      1.0000 0.04221  0.17353  0.47859  Biso   1.000  C 
  C88      1.0000 0.04157  0.11424  0.42536  Biso   1.000  C 
  C89      1.0000 0.07508  0.13677  0.52705  Biso   1.000  C 
  C90      1.0000 0.07323  0.21999  0.42135  Biso   1.000  C 
  H208     1.0000 0.08942  0.10191  0.40879  Biso   1.000  H 
  H209     1.0000 0.01314  0.12607  0.38399  Biso   1.000  H 
  H210     1.0000 0.02633  0.07059  0.44224  Biso   1.000  H 
  H211     1.0000 0.04152  0.10215  0.53377  Biso   1.000  H 
  H212     1.0000 0.09062  0.15579  0.57330  Biso   1.000  H 
  H213     1.0000 0.11615  0.11854  0.50489  Biso   1.000  H 
  H214     1.0000 0.10296  0.26416  0.42064  Biso   1.000  H 
  H215     1.0000 0.09119  0.19954  0.37450  Biso   1.000  H 
  H216     1.0000 0.02978  0.23775  0.42229  Biso   1.000  H 
  B319     1.0000 0.50000  0.84640  0.65360  Biso   1.000  B 
  B320     1.0000 0.50000  0.90471  0.67046  Biso   1.000  B 
  B321     1.0000 0.50000  0.82954  0.59529  Biso   1.000  B 
  B322     1.0000 0.50000  0.79500  0.70500  Biso   1.000  B 
  B323     1.0000 0.50000  0.73249  0.68437  Biso   1.000  B 
  N19      1.0000 0.48017  0.71300  0.61124  Biso   1.000  N 
  B324     1.0000 0.50000  0.63051  0.72128  Biso   1.000  B 
  B325     1.0000 0.50000  0.68442  0.73248  Biso   1.000  B 
  B326     1.0000 0.50000  0.70500  0.79499  Biso   1.000  B 
  B327     1.0000 0.50000  0.76751  0.81558  Biso   1.000  B 
  B328     1.0000 0.50000  0.81563  0.76751  Biso   1.000  B 
  B329     1.0000 0.50000  0.86954  0.77872  Biso   1.000  B 
  B330     1.0000 0.50000  0.77872  0.86949  Biso   1.000  B 
  B331     1.0000 0.50000  0.67046  0.90470  Biso   1.000  B 
  B332     1.0000 0.50000  0.65360  0.84639  Biso   1.000  B 
  B333     1.0000 0.50000  0.59529  0.82953  Biso   1.000  B 
  H217     1.0000 0.43202  0.69665  0.60980  Biso   1.000  H 
  C91      1.0000 0.50667  0.71987  0.54014  Biso   1.000  C 
  H218     1.0000 0.54768  0.74985  0.54888  Biso   1.000  H 
  H219     1.0000 0.46925  0.74560  0.51426  Biso   1.000  H 
  C92      1.0000 0.54249  0.67356  0.47788  Biso   1.000  C 
  C93      1.0000 0.54114  0.61478  0.42486  Biso   1.000  C 
  C94      1.0000 0.57471  0.63646  0.52618  Biso   1.000  C 
  C95      1.0000 0.57352  0.72051  0.42095  Biso   1.000  C 
  H220     1.0000 0.58894  0.60204  0.40743  Biso   1.000  H 
  H221     1.0000 0.51228  0.62687  0.38369  Biso   1.000  H 
  H222     1.0000 0.52540  0.57120  0.44151  Biso   1.000  H 
  H223     1.0000 0.54005  0.60189  0.53287  Biso   1.000  H 
  H224     1.0000 0.59088  0.65453  0.57289  Biso   1.000  H 
  H225     1.0000 0.61589  0.61737  0.50349  Biso   1.000  H 
  H226     1.0000 0.60381  0.76452  0.41996  Biso   1.000  H 
  H227     1.0000 0.59163  0.69989  0.37389  Biso   1.000  H 
  H228     1.0000 0.53023  0.73785  0.42178  Biso   1.000  H 
  B334     1.0000 0.50000  0.34640  0.15360  Biso   1.000  B 
  B335     1.0000 0.50000  0.40471  0.17046  Biso   1.000  B 
  B336     1.0000 0.50000  0.32954  0.09529  Biso   1.000  B 
  B337     1.0000 0.50000  0.29500  0.20500  Biso   1.000  B 
  B338     1.0000 0.50000  0.23249  0.18437  Biso   1.000  B 
  N20      1.0000 0.48050  0.21344  0.11079  Biso   1.000  N 
  B339     1.0000 0.50000  0.13051  0.22128  Biso   1.000  B 
  B340     1.0000 0.50000  0.18442  0.23249  Biso   1.000  B 
  B341     1.0000 0.50000  0.20500  0.29500  Biso   1.000  B 
  B342     1.0000 0.50000  0.26751  0.31558  Biso   1.000  B 
  B343     1.0000 0.50000  0.31563  0.26751  Biso   1.000  B 
  B344     1.0000 0.50000  0.36954  0.27872  Biso   1.000  B 
  B345     1.0000 0.50000  0.27872  0.36949  Biso   1.000  B 
  B346     1.0000 0.50000  0.17046  0.40470  Biso   1.000  B 
  B347     1.0000 0.50000  0.15360  0.34640  Biso   1.000  B 
  B348     1.0000 0.50000  0.09529  0.32954  Biso   1.000  B 
  H229     1.0000 0.43309  0.19603  0.10828  Biso   1.000  H 
  C96      1.0000 0.50766  0.22042  0.03992  Biso   1.000  C 
  H230     1.0000 0.54935  0.24917  0.05117  Biso   1.000  H 
  H231     1.0000 0.47100  0.24700  0.01386  Biso   1.000  H 
  C97      1.0000 0.54270  0.17347  0.97725  Biso   1.000  C 
  C98      1.0000 0.54070  0.11509  0.92439  Biso   1.000  C 
  C99      1.0000 0.57471  0.13586  0.02531  Biso   1.000  C 
  C100     1.0000 0.57392  0.22090  0.92061  Biso   1.000  C 
  H232     1.0000 0.58860  0.10203  0.90618  Biso   1.000  H 
  H233     1.0000 0.51134  0.12768  0.88378  Biso   1.000  H 
  H234     1.0000 0.52473  0.07122  0.94136  Biso   1.000  H 
  H235     1.0000 0.53918  0.10183  0.03227  Biso   1.000  H 
  H236     1.0000 0.59202  0.15355  0.07167  Biso   1.000  H 
  H237     1.0000 0.61539  0.11655  0.00257  Biso   1.000  H 
  H238     1.0000 0.60492  0.26461  0.91894  Biso   1.000  H 
  H239     1.0000 0.59211  0.19977  0.87370  Biso   1.000  H 
  H240     1.0000 0.53086  0.23802  0.92109  Biso   1.000  H 
  B349     1.0000 0.00000  0.84640  0.84640  Biso   1.000  B 
  B350     1.0000 0.00000  0.90471  0.82954  Biso   1.000  B 
  B351     1.0000 0.00000  0.82954  0.90471  Biso   1.000  B 
  B352     1.0000 0.00000  0.79500  0.79500  Biso   1.000  B 
  B353     1.0000 0.00000  0.73249  0.81563  Biso   1.000  B 
  N21      1.0000 0.94627  0.71188  0.86814  Biso   1.000  N 
  B354     1.0000 0.00000  0.63051  0.77872  Biso   1.000  B 
  B355     1.0000 0.00000  0.68442  0.76752  Biso   1.000  B 
  B356     1.0000 0.00000  0.70500  0.70501  Biso   1.000  B 
  B357     1.0000 0.00000  0.76751  0.68442  Biso   1.000  B 
  B358     1.0000 0.00000  0.81563  0.73249  Biso   1.000  B 
  B359     1.0000 0.00000  0.86954  0.72128  Biso   1.000  B 
  B360     1.0000 0.00000  0.77872  0.63051  Biso   1.000  B 
  B361     1.0000 0.00000  0.67046  0.59530  Biso   1.000  B 
  B362     1.0000 0.00000  0.65360  0.65361  Biso   1.000  B 
  B363     1.0000 0.00000  0.59529  0.67047  Biso   1.000  B 
  H241     1.0000 0.91789  0.75228  0.87466  Biso   1.000  H 
  C101     1.0000 0.89549  0.65392  0.85887  Biso   1.000  C 
  H242     1.0000 0.89372  0.63542  0.80817  Biso   1.000  H 
  H243     1.0000 0.84893  0.67357  0.86989  Biso   1.000  H 
  C102     1.0000 0.89317  0.59023  0.91424  Biso   1.000  C 
  C103     1.0000 0.93248  0.53136  0.88198  Biso   1.000  C 
  C104     1.0000 0.83421  0.55529  0.94177  Biso   1.000  C 
  C105     1.0000 0.91688  0.61571  0.97808  Biso   1.000  C 
  H244     1.0000 0.90425  0.48923  0.86279  Biso   1.000  H 
  H245     1.0000 0.96270  0.50630  0.91961  Biso   1.000  H 
  H246     1.0000 0.96581  0.55238  0.84465  Biso   1.000  H 
  H247     1.0000 0.83721  0.50348  0.93735  Biso   1.000  H 
  H248     1.0000 0.79234  0.57934  0.92093  Biso   1.000  H 
  H249     1.0000 0.82482  0.55240  0.99561  Biso   1.000  H 
  H250     1.0000 0.88257  0.62793  0.01647  Biso   1.000  H 
  H251     1.0000 0.95238  0.58606  0.00042  Biso   1.000  H 
  H252     1.0000 0.93848  0.65735  0.96465  Biso   1.000  H 
  B364     1.0000 0.00000  0.34640  0.34640  Biso   1.000  B 
  B365     1.0000 0.00000  0.40471  0.32954  Biso   1.000  B 
  B366     1.0000 0.00000  0.32954  0.40471  Biso   1.000  B 
  B367     1.0000 0.00000  0.29500  0.29500  Biso   1.000  B 
  B368     1.0000 0.00000  0.23249  0.31563  Biso   1.000  B 
  N22      1.0000 0.94659  0.21162  0.36825  Biso   1.000  N 
  B369     1.0000 0.00000  0.13051  0.27872  Biso   1.000  B 
  B370     1.0000 0.00000  0.18442  0.26751  Biso   1.000  B 
  B371     1.0000 0.00000  0.20500  0.20500  Biso   1.000  B 
  B372     1.0000 0.00000  0.26751  0.18442  Biso   1.000  B 
  B373     1.0000 0.00000  0.31563  0.23249  Biso   1.000  B 
  B374     1.0000 0.00000  0.36954  0.22128  Biso   1.000  B 
  B375     1.0000 0.00000  0.27872  0.13051  Biso   1.000  B 
  B376     1.0000 0.00000  0.17046  0.09530  Biso   1.000  B 
  B377     1.0000 0.00000  0.15360  0.15360  Biso   1.000  B 
  B378     1.0000 0.00000  0.09529  0.17046  Biso   1.000  B 
  H253     1.0000 0.91791  0.25178  0.37446  Biso   1.000  H 
  C106     1.0000 0.89608  0.15304  0.35846  Biso   1.000  C 
  H254     1.0000 0.89514  0.13357  0.30789  Biso   1.000  H 
  H255     1.0000 0.84928  0.17240  0.36858  Biso   1.000  H 
  C107     1.0000 0.89321  0.08958  0.41482  Biso   1.000  C 
  C108     1.0000 0.93301  0.03063  0.38318  Biso   1.000  C 
  C109     1.0000 0.83497  0.05403  0.44262  Biso   1.000  C 
  C110     1.0000 0.91671  0.11578  0.47860  Biso   1.000  C 
  H256     1.0000 0.90580  0.98954  0.36260  Biso   1.000  H 
  H257     1.0000 0.96207  0.00494  0.42160  Biso   1.000  H 
  H258     1.0000 0.96701  0.05200  0.34683  Biso   1.000  H 
  H259     1.0000 0.83764  0.00190  0.43752  Biso   1.000  H 
  H260     1.0000 0.79315  0.07824  0.42156  Biso   1.000  H 
  H261     1.0000 0.82465  0.05149  0.49612  Biso   1.000  H 
  H262     1.0000 0.88309  0.12865  0.51707  Biso   1.000  H 
  H263     1.0000 0.95317  0.08694  0.50137  Biso   1.000  H 
  H264     1.0000 0.93807  0.15749  0.46319  Biso   1.000  H 
  B379     1.0000 0.50000  0.84640  0.34640  Biso   1.000  B 
  B380     1.0000 0.50000  0.90471  0.32954  Biso   1.000  B 
  B381     1.0000 0.50000  0.82954  0.40471  Biso   1.000  B 
  B382     1.0000 0.50000  0.79500  0.29500  Biso   1.000  B 
  B383     1.0000 0.50000  0.73249  0.31563  Biso   1.000  B 
  N23      1.0000 0.44627  0.71190  0.36813  Biso   1.000  N 
  B384     1.0000 0.50000  0.63051  0.27872  Biso   1.000  B 
  B385     1.0000 0.50000  0.68442  0.26751  Biso   1.000  B 
  B386     1.0000 0.50000  0.70500  0.20500  Biso   1.000  B 
  B387     1.0000 0.50000  0.76751  0.18442  Biso   1.000  B 
  B388     1.0000 0.50000  0.81563  0.23249  Biso   1.000  B 
  B389     1.0000 0.50000  0.86954  0.22128  Biso   1.000  B 
  B390     1.0000 0.50000  0.77872  0.13051  Biso   1.000  B 
  B391     1.0000 0.50000  0.67046  0.09530  Biso   1.000  B 
  B392     1.0000 0.50000  0.65360  0.15360  Biso   1.000  B 
  B393     1.0000 0.50000  0.59529  0.17046  Biso   1.000  B 
  H265     1.0000 0.41785  0.75230  0.37447  Biso   1.000  H 
  C111     1.0000 0.39549  0.65388  0.35877  Biso   1.000  C 
  H266     1.0000 0.39389  0.63523  0.30806  Biso   1.000  H 
  H267     1.0000 0.34889  0.67347  0.36963  Biso   1.000  H 
  C112     1.0000 0.39308  0.59015  0.41430  Biso   1.000  C 
  C113     1.0000 0.43243  0.53123  0.38207  Biso   1.000  C 
  C114     1.0000 0.33423  0.55519  0.44199  Biso   1.000  C 
  C115     1.0000 0.41686  0.61580  0.47810  Biso   1.000  C 
  H268     1.0000 0.40412  0.48920  0.36288  Biso   1.000  H 
  H269     1.0000 0.46272  0.50617  0.41966  Biso   1.000  H 
  H270     1.0000 0.46567  0.55228  0.34473  Biso   1.000  H 
  H271     1.0000 0.33716  0.50332  0.43750  Biso   1.000  H 
  H272     1.0000 0.29231  0.57915  0.42115  Biso   1.000  H 
  H273     1.0000 0.32483  0.55231  0.49580  Biso   1.000  H 
  H274     1.0000 0.38271  0.62809  0.51651  Biso   1.000  H 
  H275     1.0000 0.45246  0.58610  0.50036  Biso   1.000  H 
  H276     1.0000 0.43850  0.65731  0.46439  Biso   1.000  H 
  B394     1.0000 0.50000  0.34640  0.84640  Biso   1.000  B 
  B395     1.0000 0.50000  0.40471  0.82954  Biso   1.000  B 
  B396     1.0000 0.50000  0.32954  0.90471  Biso   1.000  B 
  B397     1.0000 0.50000  0.29500  0.79500  Biso   1.000  B 
  B398     1.0000 0.50000  0.23249  0.81563  Biso   1.000  B 
  N24      1.0000 0.44597  0.21219  0.86784  Biso   1.000  N 
  B399     1.0000 0.50000  0.13051  0.77872  Biso   1.000  B 
  B400     1.0000 0.50000  0.18442  0.76752  Biso   1.000  B 
  B401     1.0000 0.50000  0.20500  0.70501  Biso   1.000  B 
  B402     1.0000 0.50000  0.26751  0.68442  Biso   1.000  B 
  B403     1.0000 0.50000  0.31563  0.73249  Biso   1.000  B 
  B404     1.0000 0.50000  0.36954  0.72128  Biso   1.000  B 
  B405     1.0000 0.50000  0.27872  0.63051  Biso   1.000  B 
  B406     1.0000 0.50000  0.17046  0.59530  Biso   1.000  B 
  B407     1.0000 0.50000  0.15360  0.65361  Biso   1.000  B 
  B408     1.0000 0.50000  0.09529  0.67047  Biso   1.000  B 
  H277     1.0000 0.41797  0.25279  0.87499  Biso   1.000  H 
  C116     1.0000 0.39499  0.15477  0.85937  Biso   1.000  C 
  H278     1.0000 0.39307  0.13636  0.80868  Biso   1.000  H 
  H279     1.0000 0.34855  0.17490  0.87075  Biso   1.000  H 
  C117     1.0000 0.39306  0.09083  0.91403  Biso   1.000  C 
  C118     1.0000 0.43202  0.03217  0.88132  Biso   1.000  C 
  C119     1.0000 0.33368  0.05623  0.94147  Biso   1.000  C 
  C120     1.0000 0.41718  0.11566  0.97780  Biso   1.000  C 
  H280     1.0000 0.40265  0.98946  0.86334  Biso   1.000  H 
  H281     1.0000 0.46353  0.00686  0.91786  Biso   1.000  H 
  H282     1.0000 0.46410  0.05282  0.84296  Biso   1.000  H 
  H283     1.0000 0.33695  0.00439  0.93794  Biso   1.000  H 
  H284     1.0000 0.29114  0.07940  0.92074  Biso   1.000  H 
  H285     1.0000 0.32552  0.05369  0.99528  Biso   1.000  H 
  H286     1.0000 0.38284  0.12764  0.01637  Biso   1.000  H 
  H287     1.0000 0.45201  0.08595  0.99996  Biso   1.000  H 
  H288     1.0000 0.43862  0.15728  0.96614  Biso   1.000  H 
