data_image0
_cell_length_a       26.896
_cell_length_b       26.896
_cell_length_c       26.896
_cell_angle_alpha    90
_cell_angle_beta     90
_cell_angle_gamma    90

_symmetry_space_group_name_H-M    "P 1"
_symmetry_int_tables_number       1

loop_
  _symmetry_equiv_pos_as_xyz
  'x, y, z'

loop_
  _atom_site_label
  _atom_site_occupancy
  _atom_site_fract_x
  _atom_site_fract_y
  _atom_site_fract_z
  _atom_site_thermal_displace_type
  _atom_site_B_iso_or_equiv
  _atom_site_type_symbol
  B1       1.0000 0.09204  0.00000  0.00000  Biso   1.000  B 
  B2       1.0000 0.90796  0.00000  0.00000  Biso   1.000  B 
  B3       1.0000 0.00000  0.09204  0.00000  Biso   1.000  B 
  B4       1.0000 0.00000  0.90796  0.00000  Biso   1.000  B 
  B5       1.0000 0.00000  0.00000  0.09204  Biso   1.000  B 
  B6       1.0000 0.00000  0.00000  0.90796  Biso   1.000  B 
  B7       1.0000 0.09204  0.50000  0.50000  Biso   1.000  B 
  B8       1.0000 0.90796  0.50000  0.50000  Biso   1.000  B 
  B9       1.0000 0.00000  0.59204  0.50000  Biso   1.000  B 
  B10      1.0000 0.00000  0.40796  0.50000  Biso   1.000  B 
  B11      1.0000 0.00000  0.50000  0.59204  Biso   1.000  B 
  B12      1.0000 0.00000  0.50000  0.40796  Biso   1.000  B 
  B13      1.0000 0.59204  0.00000  0.50000  Biso   1.000  B 
  B14      1.0000 0.40796  0.00000  0.50000  Biso   1.000  B 
  B15      1.0000 0.50000  0.09204  0.50000  Biso   1.000  B 
  B16      1.0000 0.50000  0.90796  0.50000  Biso   1.000  B 
  B17      1.0000 0.50000  0.00000  0.59204  Biso   1.000  B 
  B18      1.0000 0.50000  0.00000  0.40796  Biso   1.000  B 
  B19      1.0000 0.59204  0.50000  0.00000  Biso   1.000  B 
  B20      1.0000 0.40796  0.50000  0.00000  Biso   1.000  B 
  B21      1.0000 0.50000  0.59204  0.00000  Biso   1.000  B 
  B22      1.0000 0.50000  0.40796  0.00000  Biso   1.000  B 
  B23      1.0000 0.50000  0.50000  0.09204  Biso   1.000  B 
  B24      1.0000 0.50000  0.50000  0.90796  Biso   1.000  B 
  B25      1.0000 0.04540  0.04540  0.04540  Biso   1.000  B 
  B26      1.0000 0.95460  0.95460  0.04540  Biso   1.000  B 
  B27      1.0000 0.95460  0.04540  0.95460  Biso   1.000  B 
  B28      1.0000 0.04540  0.95460  0.95460  Biso   1.000  B 
  B29      1.0000 0.04540  0.04540  0.95460  Biso   1.000  B 
  B30      1.0000 0.95460  0.95460  0.95460  Biso   1.000  B 
  B31      1.0000 0.04540  0.95460  0.04540  Biso   1.000  B 
  B32      1.0000 0.95460  0.04540  0.04540  Biso   1.000  B 
  B33      1.0000 0.04540  0.54540  0.54540  Biso   1.000  B 
  B34      1.0000 0.95460  0.45460  0.54540  Biso   1.000  B 
  B35      1.0000 0.95460  0.54540  0.45460  Biso   1.000  B 
  B36      1.0000 0.04540  0.45460  0.45460  Biso   1.000  B 
  B37      1.0000 0.04540  0.54540  0.45460  Biso   1.000  B 
  B38      1.0000 0.95460  0.45460  0.45460  Biso   1.000  B 
  B39      1.0000 0.04540  0.45460  0.54540  Biso   1.000  B 
  B40      1.0000 0.95460  0.54540  0.54540  Biso   1.000  B 
  B41      1.0000 0.54540  0.04540  0.54540  Biso   1.000  B 
  B42      1.0000 0.45460  0.95460  0.54540  Biso   1.000  B 
  B43      1.0000 0.45460  0.04540  0.45460  Biso   1.000  B 
  B44      1.0000 0.54540  0.95460  0.45460  Biso   1.000  B 
  B45      1.0000 0.54540  0.04540  0.45460  Biso   1.000  B 
  B46      1.0000 0.45460  0.95460  0.45460  Biso   1.000  B 
  B47      1.0000 0.54540  0.95460  0.54540  Biso   1.000  B 
  B48      1.0000 0.45460  0.04540  0.54540  Biso   1.000  B 
  B49      1.0000 0.54540  0.54540  0.04540  Biso   1.000  B 
  B50      1.0000 0.45460  0.45460  0.04540  Biso   1.000  B 
  B51      1.0000 0.45460  0.54540  0.95460  Biso   1.000  B 
  B52      1.0000 0.54540  0.45460  0.95460  Biso   1.000  B 
  B53      1.0000 0.54540  0.54540  0.95460  Biso   1.000  B 
  B54      1.0000 0.45460  0.45460  0.95460  Biso   1.000  B 
  B55      1.0000 0.54540  0.45460  0.04540  Biso   1.000  B 
  B56      1.0000 0.45460  0.54540  0.04540  Biso   1.000  B 
  B57      1.0000 0.13260  0.00000  0.07190  Biso   1.000  B 
  B58      1.0000 0.11720  0.00000  0.11720  Biso   1.000  B 
  B59      1.0000 0.07190  0.00000  0.13260  Biso   1.000  B 
  B60      1.0000 0.15650  0.00000  0.15650  Biso   1.000  B 
  B61      1.0000 0.20580  0.00000  0.14470  Biso   1.000  B 
  B62      1.0000 0.14470  0.00000  0.20580  Biso   1.000  B 
  B63      1.0000 0.24200  0.00000  0.17950  Biso   1.000  B 
  B64      1.0000 0.21490  0.00000  0.11140  Biso   1.000  B 
  B65      1.0000 0.17950  0.00000  0.24200  Biso   1.000  B 
  B66      1.0000 0.11140  0.00000  0.21490  Biso   1.000  B 
  B67      1.0000 0.23070  0.00000  0.23070  Biso   1.000  B 
  B68      1.0000 0.26930  0.00000  0.26930  Biso   1.000  B 
  B69      1.0000 0.27510  0.00000  0.16950  Biso   1.000  B 
  B70      1.0000 0.32050  0.00000  0.25800  Biso   1.000  B 
  B71      1.0000 0.16950  0.00000  0.27510  Biso   1.000  B 
  B72      1.0000 0.25800  0.00000  0.32050  Biso   1.000  B 
  B73      1.0000 0.35530  0.00000  0.29420  Biso   1.000  B 
  N1       1.0000 0.33850  0.02100  0.20845  Biso   1.000  N 
  B74      1.0000 0.29420  0.00000  0.35530  Biso   1.000  B 
  B75      1.0000 0.22490  0.00000  0.33050  Biso   1.000  B 
  B76      1.0000 0.34350  0.00000  0.34350  Biso   1.000  B 
  B77      1.0000 0.38280  0.00000  0.38280  Biso   1.000  B 
  B78      1.0000 0.38860  0.00000  0.28510  Biso   1.000  B 
  B79      1.0000 0.28510  0.00000  0.38860  Biso   1.000  B 
  B80      1.0000 0.42810  0.00000  0.36740  Biso   1.000  B 
  B81      1.0000 0.36740  0.00000  0.42810  Biso   1.000  B 
  H1       1.0000 0.35311  0.05667  0.21387  Biso   1.000  H 
  C1       1.0000 0.37352  0.98965  0.17930  Biso   1.000  C 
  C2       1.0000 0.37837  0.01145  0.12678  Biso   1.000  C 
  C3       1.0000 0.40902  0.05991  0.12483  Biso   1.000  C 
  H2       1.0000 0.39561  0.09194  0.15049  Biso   1.000  H 
  C4       1.0000 0.40655  0.08067  0.07031  Biso   1.000  C 
  H3       1.0000 0.44806  0.04870  0.13372  Biso   1.000  H 
  H4       1.0000 0.36123  0.95054  0.17756  Biso   1.000  H 
  H5       1.0000 0.41063  0.99105  0.19704  Biso   1.000  H 
  H6       1.0000 0.33977  0.01896  0.11033  Biso   1.000  H 
  H7       1.0000 0.39769  0.98194  0.10396  Biso   1.000  H 
  H8       1.0000 0.43116  0.11301  0.06457  Biso   1.000  H 
  H9       1.0000 0.36782  0.09358  0.06488  Biso   1.000  H 
  H10      1.0000 0.41622  0.05228  0.04079  Biso   1.000  H 
  B82      1.0000 0.86740  0.00000  0.07190  Biso   1.000  B 
  B83      1.0000 0.88280  0.00000  0.11720  Biso   1.000  B 
  B84      1.0000 0.92810  0.00000  0.13260  Biso   1.000  B 
  B85      1.0000 0.84350  0.00000  0.15650  Biso   1.000  B 
  B86      1.0000 0.79420  0.00000  0.14470  Biso   1.000  B 
  B87      1.0000 0.85530  0.00000  0.20580  Biso   1.000  B 
  B88      1.0000 0.75800  0.00000  0.17950  Biso   1.000  B 
  B89      1.0000 0.78510  0.00000  0.11140  Biso   1.000  B 
  B90      1.0000 0.82050  0.00000  0.24200  Biso   1.000  B 
  B91      1.0000 0.88860  0.00000  0.21490  Biso   1.000  B 
  B92      1.0000 0.76930  0.00000  0.23070  Biso   1.000  B 
  B93      1.0000 0.73070  0.00000  0.26930  Biso   1.000  B 
  B94      1.0000 0.72490  0.00000  0.16950  Biso   1.000  B 
  B95      1.0000 0.67950  0.00000  0.25800  Biso   1.000  B 
  B96      1.0000 0.83050  0.00000  0.27510  Biso   1.000  B 
  B97      1.0000 0.74200  0.00000  0.32050  Biso   1.000  B 
  B98      1.0000 0.64470  0.00000  0.29420  Biso   1.000  B 
  N2       1.0000 0.66150  0.97900  0.20845  Biso   1.000  N 
  B99      1.0000 0.70580  0.00000  0.35530  Biso   1.000  B 
  B100     1.0000 0.77510  0.00000  0.33050  Biso   1.000  B 
  B101     1.0000 0.65650  0.00000  0.34350  Biso   1.000  B 
  B102     1.0000 0.61720  0.00000  0.38280  Biso   1.000  B 
  B103     1.0000 0.61140  0.00000  0.28510  Biso   1.000  B 
  B104     1.0000 0.71490  0.00000  0.38860  Biso   1.000  B 
  B105     1.0000 0.57190  0.00000  0.36740  Biso   1.000  B 
  B106     1.0000 0.63260  0.00000  0.42810  Biso   1.000  B 
  H11      1.0000 0.64689  0.94333  0.21387  Biso   1.000  H 
  C5       1.0000 0.62648  0.01035  0.17930  Biso   1.000  C 
  C6       1.0000 0.62163  0.98855  0.12678  Biso   1.000  C 
  C7       1.0000 0.59098  0.94009  0.12483  Biso   1.000  C 
  H12      1.0000 0.60439  0.90806  0.15049  Biso   1.000  H 
  C8       1.0000 0.59345  0.91933  0.07031  Biso   1.000  C 
  H13      1.0000 0.55194  0.95130  0.13372  Biso   1.000  H 
  H14      1.0000 0.63876  0.04946  0.17756  Biso   1.000  H 
  H15      1.0000 0.58937  0.00895  0.19704  Biso   1.000  H 
  H16      1.0000 0.66022  0.98104  0.11033  Biso   1.000  H 
  H17      1.0000 0.60231  0.01806  0.10396  Biso   1.000  H 
  H18      1.0000 0.56884  0.88699  0.06457  Biso   1.000  H 
  H19      1.0000 0.63218  0.90642  0.06488  Biso   1.000  H 
  H20      1.0000 0.58378  0.94772  0.04079  Biso   1.000  H 
  B107     1.0000 0.86740  0.00000  0.92810  Biso   1.000  B 
  B108     1.0000 0.88280  0.00000  0.88280  Biso   1.000  B 
  B109     1.0000 0.92810  0.00000  0.86740  Biso   1.000  B 
  B110     1.0000 0.84350  0.00000  0.84350  Biso   1.000  B 
  B111     1.0000 0.79420  0.00000  0.85530  Biso   1.000  B 
  B112     1.0000 0.85530  0.00000  0.79420  Biso   1.000  B 
  B113     1.0000 0.75800  0.00000  0.82050  Biso   1.000  B 
  B114     1.0000 0.78510  0.00000  0.88860  Biso   1.000  B 
  B115     1.0000 0.82050  0.00000  0.75800  Biso   1.000  B 
  B116     1.0000 0.88860  0.00000  0.78510  Biso   1.000  B 
  B117     1.0000 0.76930  0.00000  0.76930  Biso   1.000  B 
  B118     1.0000 0.73070  0.00000  0.73070  Biso   1.000  B 
  B119     1.0000 0.72490  0.00000  0.83050  Biso   1.000  B 
  B120     1.0000 0.67950  0.00000  0.74200  Biso   1.000  B 
  B121     1.0000 0.83050  0.00000  0.72490  Biso   1.000  B 
  B122     1.0000 0.74200  0.00000  0.67950  Biso   1.000  B 
  B123     1.0000 0.64470  0.00000  0.70580  Biso   1.000  B 
  N3       1.0000 0.66150  0.02100  0.79155  Biso   1.000  N 
  B124     1.0000 0.70580  0.00000  0.64470  Biso   1.000  B 
  B125     1.0000 0.77510  0.00000  0.66950  Biso   1.000  B 
  B126     1.0000 0.65650  0.00000  0.65650  Biso   1.000  B 
  B127     1.0000 0.61720  0.00000  0.61720  Biso   1.000  B 
  B128     1.0000 0.61140  0.00000  0.71490  Biso   1.000  B 
  B129     1.0000 0.71490  0.00000  0.61140  Biso   1.000  B 
  B130     1.0000 0.57190  0.00000  0.63260  Biso   1.000  B 
  B131     1.0000 0.63260  0.00000  0.57190  Biso   1.000  B 
  H21      1.0000 0.64689  0.05667  0.78613  Biso   1.000  H 
  C9       1.0000 0.62648  0.98965  0.82069  Biso   1.000  C 
  C10      1.0000 0.62163  0.01145  0.87323  Biso   1.000  C 
  C11      1.0000 0.59098  0.05991  0.87517  Biso   1.000  C 
  H22      1.0000 0.60439  0.09194  0.84951  Biso   1.000  H 
  C12      1.0000 0.59345  0.08067  0.92968  Biso   1.000  C 
  H23      1.0000 0.55194  0.04870  0.86628  Biso   1.000  H 
  H24      1.0000 0.63876  0.95054  0.82243  Biso   1.000  H 
  H25      1.0000 0.58937  0.99105  0.80296  Biso   1.000  H 
  H26      1.0000 0.66022  0.01896  0.88967  Biso   1.000  H 
  H27      1.0000 0.60231  0.98194  0.89604  Biso   1.000  H 
  H28      1.0000 0.56884  0.11301  0.93543  Biso   1.000  H 
  H29      1.0000 0.63218  0.09358  0.93512  Biso   1.000  H 
  H30      1.0000 0.58378  0.05228  0.95921  Biso   1.000  H 
  B132     1.0000 0.13260  0.00000  0.92810  Biso   1.000  B 
  B133     1.0000 0.11720  0.00000  0.88280  Biso   1.000  B 
  B134     1.0000 0.07190  0.00000  0.86740  Biso   1.000  B 
  B135     1.0000 0.15650  0.00000  0.84350  Biso   1.000  B 
  B136     1.0000 0.20580  0.00000  0.85530  Biso   1.000  B 
  B137     1.0000 0.14470  0.00000  0.79420  Biso   1.000  B 
  B138     1.0000 0.24200  0.00000  0.82050  Biso   1.000  B 
  B139     1.0000 0.21490  0.00000  0.88860  Biso   1.000  B 
  B140     1.0000 0.17950  0.00000  0.75800  Biso   1.000  B 
  B141     1.0000 0.11140  0.00000  0.78510  Biso   1.000  B 
  B142     1.0000 0.23070  0.00000  0.76930  Biso   1.000  B 
  B143     1.0000 0.26930  0.00000  0.73070  Biso   1.000  B 
  B144     1.0000 0.27510  0.00000  0.83050  Biso   1.000  B 
  B145     1.0000 0.32050  0.00000  0.74200  Biso   1.000  B 
  B146     1.0000 0.16950  0.00000  0.72490  Biso   1.000  B 
  B147     1.0000 0.25800  0.00000  0.67950  Biso   1.000  B 
  B148     1.0000 0.35530  0.00000  0.70580  Biso   1.000  B 
  N4       1.0000 0.33850  0.97900  0.79155  Biso   1.000  N 
  B149     1.0000 0.29420  0.00000  0.64470  Biso   1.000  B 
  B150     1.0000 0.22490  0.00000  0.66950  Biso   1.000  B 
  B151     1.0000 0.34350  0.00000  0.65650  Biso   1.000  B 
  B152     1.0000 0.38280  0.00000  0.61720  Biso   1.000  B 
  B153     1.0000 0.38860  0.00000  0.71490  Biso   1.000  B 
  B154     1.0000 0.28510  0.00000  0.61140  Biso   1.000  B 
  B155     1.0000 0.42810  0.00000  0.63260  Biso   1.000  B 
  B156     1.0000 0.36740  0.00000  0.57190  Biso   1.000  B 
  H31      1.0000 0.35311  0.94333  0.78613  Biso   1.000  H 
  C13      1.0000 0.37352  0.01035  0.82069  Biso   1.000  C 
  C14      1.0000 0.37837  0.98855  0.87323  Biso   1.000  C 
  C15      1.0000 0.40902  0.94009  0.87517  Biso   1.000  C 
  H32      1.0000 0.39561  0.90806  0.84951  Biso   1.000  H 
  C16      1.0000 0.40655  0.91933  0.92968  Biso   1.000  C 
  H33      1.0000 0.44806  0.95130  0.86628  Biso   1.000  H 
  H34      1.0000 0.36123  0.04946  0.82243  Biso   1.000  H 
  H35      1.0000 0.41063  0.00895  0.80296  Biso   1.000  H 
  H36      1.0000 0.33977  0.98104  0.88967  Biso   1.000  H 
  H37      1.0000 0.39769  0.01806  0.89604  Biso   1.000  H 
  H38      1.0000 0.43116  0.88699  0.93543  Biso   1.000  H 
  H39      1.0000 0.36782  0.90642  0.93512  Biso   1.000  H 
  H40      1.0000 0.41622  0.94772  0.95921  Biso   1.000  H 
  B157     1.0000 0.07190  0.13260  0.00000  Biso   1.000  B 
  B158     1.0000 0.11720  0.11720  0.00000  Biso   1.000  B 
  B159     1.0000 0.13260  0.07190  0.00000  Biso   1.000  B 
  B160     1.0000 0.15650  0.15650  0.00000  Biso   1.000  B 
  B161     1.0000 0.14470  0.20580  0.00000  Biso   1.000  B 
  B162     1.0000 0.20580  0.14470  0.00000  Biso   1.000  B 
  B163     1.0000 0.17950  0.24200  0.00000  Biso   1.000  B 
  B164     1.0000 0.11140  0.21490  0.00000  Biso   1.000  B 
  B165     1.0000 0.24200  0.17950  0.00000  Biso   1.000  B 
  B166     1.0000 0.21490  0.11140  0.00000  Biso   1.000  B 
  B167     1.0000 0.23070  0.23070  0.00000  Biso   1.000  B 
  B168     1.0000 0.26930  0.26930  0.00000  Biso   1.000  B 
  B169     1.0000 0.16950  0.27510  0.00000  Biso   1.000  B 
  B170     1.0000 0.25800  0.32050  0.00000  Biso   1.000  B 
  B171     1.0000 0.27510  0.16950  0.00000  Biso   1.000  B 
  B172     1.0000 0.32050  0.25800  0.00000  Biso   1.000  B 
  B173     1.0000 0.29420  0.35530  0.00000  Biso   1.000  B 
  N5       1.0000 0.20711  0.34075  0.98558  Biso   1.000  N 
  B174     1.0000 0.35530  0.29420  0.00000  Biso   1.000  B 
  B175     1.0000 0.33050  0.22490  0.00000  Biso   1.000  B 
  B176     1.0000 0.34350  0.34350  0.00000  Biso   1.000  B 
  B177     1.0000 0.38280  0.38280  0.00000  Biso   1.000  B 
  B178     1.0000 0.28510  0.38860  0.00000  Biso   1.000  B 
  B179     1.0000 0.38860  0.28510  0.00000  Biso   1.000  B 
  B180     1.0000 0.36740  0.42810  0.00000  Biso   1.000  B 
  B181     1.0000 0.42810  0.36740  0.00000  Biso   1.000  B 
  H41      1.0000 0.19463  0.36416  0.01416  Biso   1.000  H 
  C17      1.0000 0.21162  0.36926  0.93902  Biso   1.000  C 
  C18      1.0000 0.17226  0.35303  0.90302  Biso   1.000  C 
  C19      1.0000 0.18336  0.37575  0.85219  Biso   1.000  C 
  H42      1.0000 0.18394  0.41675  0.85496  Biso   1.000  H 
  C20      1.0000 0.14378  0.36017  0.81607  Biso   1.000  C 
  H43      1.0000 0.21994  0.36250  0.83756  Biso   1.000  H 
  H44      1.0000 0.24807  0.36281  0.91965  Biso   1.000  H 
  H45      1.0000 0.20743  0.40956  0.94672  Biso   1.000  H 
  H46      1.0000 0.13584  0.36684  0.91655  Biso   1.000  H 
  H47      1.0000 0.17099  0.31190  0.90060  Biso   1.000  H 
  H48      1.0000 0.10665  0.37340  0.82858  Biso   1.000  H 
  H49      1.0000 0.14343  0.31883  0.81324  Biso   1.000  H 
  H50      1.0000 0.15228  0.37629  0.77905  Biso   1.000  H 
  B182     1.0000 0.07190  0.86740  0.00000  Biso   1.000  B 
  B183     1.0000 0.11720  0.88280  0.00000  Biso   1.000  B 
  B184     1.0000 0.13260  0.92810  0.00000  Biso   1.000  B 
  B185     1.0000 0.15650  0.84350  0.00000  Biso   1.000  B 
  B186     1.0000 0.14470  0.79420  0.00000  Biso   1.000  B 
  B187     1.0000 0.20580  0.85530  0.00000  Biso   1.000  B 
  B188     1.0000 0.17950  0.75800  0.00000  Biso   1.000  B 
  B189     1.0000 0.11140  0.78510  0.00000  Biso   1.000  B 
  B190     1.0000 0.24200  0.82050  0.00000  Biso   1.000  B 
  B191     1.0000 0.21490  0.88860  0.00000  Biso   1.000  B 
  B192     1.0000 0.23070  0.76930  0.00000  Biso   1.000  B 
  B193     1.0000 0.26930  0.73070  0.00000  Biso   1.000  B 
  B194     1.0000 0.16950  0.72490  0.00000  Biso   1.000  B 
  B195     1.0000 0.25800  0.67950  0.00000  Biso   1.000  B 
  B196     1.0000 0.27510  0.83050  0.00000  Biso   1.000  B 
  B197     1.0000 0.32050  0.74200  0.00000  Biso   1.000  B 
  B198     1.0000 0.29420  0.64470  0.00000  Biso   1.000  B 
  N6       1.0000 0.20711  0.65925  0.01442  Biso   1.000  N 
  B199     1.0000 0.35530  0.70580  0.00000  Biso   1.000  B 
  B200     1.0000 0.33050  0.77510  0.00000  Biso   1.000  B 
  B201     1.0000 0.34350  0.65650  0.00000  Biso   1.000  B 
  B202     1.0000 0.38280  0.61720  0.00000  Biso   1.000  B 
  B203     1.0000 0.28510  0.61140  0.00000  Biso   1.000  B 
  B204     1.0000 0.38860  0.71490  0.00000  Biso   1.000  B 
  B205     1.0000 0.36740  0.57190  0.00000  Biso   1.000  B 
  B206     1.0000 0.42810  0.63260  0.00000  Biso   1.000  B 
  H51      1.0000 0.19463  0.63583  0.98584  Biso   1.000  H 
  C21      1.0000 0.21162  0.63074  0.06098  Biso   1.000  C 
  C22      1.0000 0.17226  0.64697  0.09698  Biso   1.000  C 
  C23      1.0000 0.18336  0.62425  0.14781  Biso   1.000  C 
  H52      1.0000 0.18394  0.58325  0.14504  Biso   1.000  H 
  C24      1.0000 0.14378  0.63983  0.18393  Biso   1.000  C 
  H53      1.0000 0.21994  0.63750  0.16244  Biso   1.000  H 
  H54      1.0000 0.24807  0.63719  0.08035  Biso   1.000  H 
  H55      1.0000 0.20743  0.59044  0.05328  Biso   1.000  H 
  H56      1.0000 0.13584  0.63316  0.08345  Biso   1.000  H 
  H57      1.0000 0.17099  0.68810  0.09940  Biso   1.000  H 
  H58      1.0000 0.10665  0.62660  0.17142  Biso   1.000  H 
  H59      1.0000 0.14343  0.68116  0.18676  Biso   1.000  H 
  H60      1.0000 0.15228  0.62371  0.22095  Biso   1.000  H 
  B207     1.0000 0.92810  0.86740  0.00000  Biso   1.000  B 
  B208     1.0000 0.88280  0.88280  0.00000  Biso   1.000  B 
  B209     1.0000 0.86740  0.92810  0.00000  Biso   1.000  B 
  B210     1.0000 0.84350  0.84350  0.00000  Biso   1.000  B 
  B211     1.0000 0.85530  0.79420  0.00000  Biso   1.000  B 
  B212     1.0000 0.79420  0.85530  0.00000  Biso   1.000  B 
  B213     1.0000 0.82050  0.75800  0.00000  Biso   1.000  B 
  B214     1.0000 0.88860  0.78510  0.00000  Biso   1.000  B 
  B215     1.0000 0.75800  0.82050  0.00000  Biso   1.000  B 
  B216     1.0000 0.78510  0.88860  0.00000  Biso   1.000  B 
  B217     1.0000 0.76930  0.76930  0.00000  Biso   1.000  B 
  B218     1.0000 0.73070  0.73070  0.00000  Biso   1.000  B 
  B219     1.0000 0.83050  0.72490  0.00000  Biso   1.000  B 
  B220     1.0000 0.74200  0.67950  0.00000  Biso   1.000  B 
  B221     1.0000 0.72490  0.83050  0.00000  Biso   1.000  B 
  B222     1.0000 0.67950  0.74200  0.00000  Biso   1.000  B 
  B223     1.0000 0.70580  0.64470  0.00000  Biso   1.000  B 
  N7       1.0000 0.79289  0.65925  0.98558  Biso   1.000  N 
  B224     1.0000 0.64470  0.70580  0.00000  Biso   1.000  B 
  B225     1.0000 0.66950  0.77510  0.00000  Biso   1.000  B 
  B226     1.0000 0.65650  0.65650  0.00000  Biso   1.000  B 
  B227     1.0000 0.61720  0.61720  0.00000  Biso   1.000  B 
  B228     1.0000 0.71490  0.61140  0.00000  Biso   1.000  B 
  B229     1.0000 0.61140  0.71490  0.00000  Biso   1.000  B 
  B230     1.0000 0.63260  0.57190  0.00000  Biso   1.000  B 
  B231     1.0000 0.57190  0.63260  0.00000  Biso   1.000  B 
  H61      1.0000 0.80537  0.63583  0.01416  Biso   1.000  H 
  C25      1.0000 0.78838  0.63074  0.93902  Biso   1.000  C 
  C26      1.0000 0.82774  0.64697  0.90302  Biso   1.000  C 
  C27      1.0000 0.81663  0.62425  0.85219  Biso   1.000  C 
  H62      1.0000 0.81606  0.58325  0.85496  Biso   1.000  H 
  C28      1.0000 0.85622  0.63983  0.81607  Biso   1.000  C 
  H63      1.0000 0.78006  0.63750  0.83756  Biso   1.000  H 
  H64      1.0000 0.75193  0.63719  0.91965  Biso   1.000  H 
  H65      1.0000 0.79257  0.59044  0.94672  Biso   1.000  H 
  H66      1.0000 0.86417  0.63316  0.91655  Biso   1.000  H 
  H67      1.0000 0.82902  0.68810  0.90060  Biso   1.000  H 
  H68      1.0000 0.89334  0.62660  0.82858  Biso   1.000  H 
  H69      1.0000 0.85657  0.68116  0.81324  Biso   1.000  H 
  H70      1.0000 0.84772  0.62371  0.77905  Biso   1.000  H 
  B232     1.0000 0.92810  0.13260  0.00000  Biso   1.000  B 
  B233     1.0000 0.88280  0.11720  0.00000  Biso   1.000  B 
  B234     1.0000 0.86740  0.07190  0.00000  Biso   1.000  B 
  B235     1.0000 0.84350  0.15650  0.00000  Biso   1.000  B 
  B236     1.0000 0.85530  0.20580  0.00000  Biso   1.000  B 
  B237     1.0000 0.79420  0.14470  0.00000  Biso   1.000  B 
  B238     1.0000 0.82050  0.24200  0.00000  Biso   1.000  B 
  B239     1.0000 0.88860  0.21490  0.00000  Biso   1.000  B 
  B240     1.0000 0.75800  0.17950  0.00000  Biso   1.000  B 
  B241     1.0000 0.78510  0.11140  0.00000  Biso   1.000  B 
  B242     1.0000 0.76930  0.23070  0.00000  Biso   1.000  B 
  B243     1.0000 0.73070  0.26930  0.00000  Biso   1.000  B 
  B244     1.0000 0.83050  0.27510  0.00000  Biso   1.000  B 
  B245     1.0000 0.74200  0.32050  0.00000  Biso   1.000  B 
  B246     1.0000 0.72490  0.16950  0.00000  Biso   1.000  B 
  B247     1.0000 0.67950  0.25800  0.00000  Biso   1.000  B 
  B248     1.0000 0.70580  0.35530  0.00000  Biso   1.000  B 
  N8       1.0000 0.79289  0.34075  0.01442  Biso   1.000  N 
  B249     1.0000 0.64470  0.29420  0.00000  Biso   1.000  B 
  B250     1.0000 0.66950  0.22490  0.00000  Biso   1.000  B 
  B251     1.0000 0.65650  0.34350  0.00000  Biso   1.000  B 
  B252     1.0000 0.61720  0.38280  0.00000  Biso   1.000  B 
  B253     1.0000 0.71490  0.38860  0.00000  Biso   1.000  B 
  B254     1.0000 0.61140  0.28510  0.00000  Biso   1.000  B 
  B255     1.0000 0.63260  0.42810  0.00000  Biso   1.000  B 
  B256     1.0000 0.57190  0.36740  0.00000  Biso   1.000  B 
  H71      1.0000 0.80537  0.36416  0.98584  Biso   1.000  H 
  C29      1.0000 0.78838  0.36926  0.06098  Biso   1.000  C 
  C30      1.0000 0.82774  0.35303  0.09698  Biso   1.000  C 
  C31      1.0000 0.81663  0.37575  0.14781  Biso   1.000  C 
  H72      1.0000 0.81606  0.41675  0.14504  Biso   1.000  H 
  C32      1.0000 0.85622  0.36017  0.18393  Biso   1.000  C 
  H73      1.0000 0.78006  0.36250  0.16244  Biso   1.000  H 
  H74      1.0000 0.75193  0.36281  0.08035  Biso   1.000  H 
  H75      1.0000 0.79257  0.40956  0.05328  Biso   1.000  H 
  H76      1.0000 0.86417  0.36684  0.08345  Biso   1.000  H 
  H77      1.0000 0.82902  0.31190  0.09940  Biso   1.000  H 
  H78      1.0000 0.89334  0.37340  0.17142  Biso   1.000  H 
  H79      1.0000 0.85657  0.31883  0.18676  Biso   1.000  H 
  H80      1.0000 0.84772  0.37629  0.22095  Biso   1.000  H 
  B257     1.0000 0.00000  0.07190  0.13260  Biso   1.000  B 
  B258     1.0000 0.00000  0.11720  0.11720  Biso   1.000  B 
  B259     1.0000 0.00000  0.13260  0.07190  Biso   1.000  B 
  B260     1.0000 0.00000  0.15650  0.15650  Biso   1.000  B 
  B261     1.0000 0.00000  0.14470  0.20580  Biso   1.000  B 
  B262     1.0000 0.00000  0.20580  0.14470  Biso   1.000  B 
  B263     1.0000 0.00000  0.17950  0.24200  Biso   1.000  B 
  B264     1.0000 0.00000  0.11140  0.21490  Biso   1.000  B 
  B265     1.0000 0.00000  0.24200  0.17950  Biso   1.000  B 
  B266     1.0000 0.00000  0.21490  0.11140  Biso   1.000  B 
  B267     1.0000 0.00000  0.23070  0.23070  Biso   1.000  B 
  B268     1.0000 0.00000  0.26930  0.26930  Biso   1.000  B 
  B269     1.0000 0.00000  0.16950  0.27510  Biso   1.000  B 
  B270     1.0000 0.00000  0.25800  0.32050  Biso   1.000  B 
  B271     1.0000 0.00000  0.27510  0.16950  Biso   1.000  B 
  B272     1.0000 0.00000  0.32050  0.25800  Biso   1.000  B 
  B273     1.0000 0.00000  0.29420  0.35530  Biso   1.000  B 
  N9       1.0000 0.02799  0.21003  0.33641  Biso   1.000  N 
  B274     1.0000 0.00000  0.35530  0.29420  Biso   1.000  B 
  B275     1.0000 0.00000  0.33050  0.22490  Biso   1.000  B 
  B276     1.0000 0.00000  0.34350  0.34350  Biso   1.000  B 
  B277     1.0000 0.00000  0.38280  0.38280  Biso   1.000  B 
  B278     1.0000 0.00000  0.28510  0.38860  Biso   1.000  B 
  B279     1.0000 0.00000  0.38860  0.28510  Biso   1.000  B 
  B280     1.0000 0.00000  0.36740  0.42810  Biso   1.000  B 
  B281     1.0000 0.00000  0.42810  0.36740  Biso   1.000  B 
  H81      1.0000 0.06399  0.22176  0.34433  Biso   1.000  H 
  C33      1.0000 0.00768  0.18408  0.37950  Biso   1.000  C 
  C34      1.0000 0.04532  0.14888  0.40265  Biso   1.000  C 
  C35      1.0000 0.05784  0.10380  0.37044  Biso   1.000  C 
  H82      1.0000 0.03923  0.06702  0.38441  Biso   1.000  H 
  C36      1.0000 0.11479  0.09158  0.37400  Biso   1.000  C 
  H83      1.0000 0.04719  0.11011  0.33114  Biso   1.000  H 
  H84      1.0000 0.97280  0.16403  0.36920  Biso   1.000  H 
  H85      1.0000 0.99870  0.21100  0.40837  Biso   1.000  H 
  H86      1.0000 0.03099  0.13316  0.43828  Biso   1.000  H 
  H87      1.0000 0.07854  0.17134  0.41153  Biso   1.000  H 
  H88      1.0000 0.12039  0.05362  0.35915  Biso   1.000  H 
  H89      1.0000 0.12638  0.09185  0.41407  Biso   1.000  H 
  H90      1.0000 0.13713  0.11973  0.35178  Biso   1.000  H 
  B282     1.0000 0.00000  0.07190  0.86740  Biso   1.000  B 
  B283     1.0000 0.00000  0.11720  0.88280  Biso   1.000  B 
  B284     1.0000 0.00000  0.13260  0.92810  Biso   1.000  B 
  B285     1.0000 0.00000  0.15650  0.84350  Biso   1.000  B 
  B286     1.0000 0.00000  0.14470  0.79420  Biso   1.000  B 
  B287     1.0000 0.00000  0.20580  0.85530  Biso   1.000  B 
  B288     1.0000 0.00000  0.17950  0.75800  Biso   1.000  B 
  B289     1.0000 0.00000  0.11140  0.78510  Biso   1.000  B 
  B290     1.0000 0.00000  0.24200  0.82050  Biso   1.000  B 
  B291     1.0000 0.00000  0.21490  0.88860  Biso   1.000  B 
  B292     1.0000 0.00000  0.23070  0.76930  Biso   1.000  B 
  B293     1.0000 0.00000  0.26930  0.73070  Biso   1.000  B 
  B294     1.0000 0.00000  0.16950  0.72490  Biso   1.000  B 
  B295     1.0000 0.00000  0.25800  0.67950  Biso   1.000  B 
  B296     1.0000 0.00000  0.27510  0.83050  Biso   1.000  B 
  B297     1.0000 0.00000  0.32050  0.74200  Biso   1.000  B 
  B298     1.0000 0.00000  0.29420  0.64470  Biso   1.000  B 
  N10      1.0000 0.97201  0.21003  0.66359  Biso   1.000  N 
  B299     1.0000 0.00000  0.35530  0.70580  Biso   1.000  B 
  B300     1.0000 0.00000  0.33050  0.77510  Biso   1.000  B 
  B301     1.0000 0.00000  0.34350  0.65650  Biso   1.000  B 
  B302     1.0000 0.00000  0.38280  0.61720  Biso   1.000  B 
  B303     1.0000 0.00000  0.28510  0.61140  Biso   1.000  B 
  B304     1.0000 0.00000  0.38860  0.71490  Biso   1.000  B 
  B305     1.0000 0.00000  0.36740  0.57190  Biso   1.000  B 
  B306     1.0000 0.00000  0.42810  0.63260  Biso   1.000  B 
  H91      1.0000 0.93602  0.22176  0.65567  Biso   1.000  H 
  C37      1.0000 0.99232  0.18408  0.62050  Biso   1.000  C 
  C38      1.0000 0.95468  0.14888  0.59735  Biso   1.000  C 
  C39      1.0000 0.94216  0.10380  0.62956  Biso   1.000  C 
  H92      1.0000 0.96077  0.06702  0.61559  Biso   1.000  H 
  C40      1.0000 0.88521  0.09158  0.62600  Biso   1.000  C 
  H93      1.0000 0.95281  0.11011  0.66886  Biso   1.000  H 
  H94      1.0000 0.02720  0.16403  0.63080  Biso   1.000  H 
  H95      1.0000 0.00130  0.21100  0.59163  Biso   1.000  H 
  H96      1.0000 0.96901  0.13316  0.56172  Biso   1.000  H 
  H97      1.0000 0.92146  0.17134  0.58847  Biso   1.000  H 
  H98      1.0000 0.87961  0.05362  0.64085  Biso   1.000  H 
  H99      1.0000 0.87362  0.09185  0.58593  Biso   1.000  H 
  H100     1.0000 0.86287  0.11973  0.64822  Biso   1.000  H 
  B307     1.0000 0.00000  0.92810  0.86740  Biso   1.000  B 
  B308     1.0000 0.00000  0.88280  0.88280  Biso   1.000  B 
  B309     1.0000 0.00000  0.86740  0.92810  Biso   1.000  B 
  B310     1.0000 0.00000  0.84350  0.84350  Biso   1.000  B 
  B311     1.0000 0.00000  0.85530  0.79420  Biso   1.000  B 
  B312     1.0000 0.00000  0.79420  0.85530  Biso   1.000  B 
  B313     1.0000 0.00000  0.82050  0.75800  Biso   1.000  B 
  B314     1.0000 0.00000  0.88860  0.78510  Biso   1.000  B 
  B315     1.0000 0.00000  0.75800  0.82050  Biso   1.000  B 
  B316     1.0000 0.00000  0.78510  0.88860  Biso   1.000  B 
  B317     1.0000 0.00000  0.76930  0.76930  Biso   1.000  B 
  B318     1.0000 0.00000  0.73070  0.73070  Biso   1.000  B 
  B319     1.0000 0.00000  0.83050  0.72490  Biso   1.000  B 
  B320     1.0000 0.00000  0.74200  0.67950  Biso   1.000  B 
  B321     1.0000 0.00000  0.72490  0.83050  Biso   1.000  B 
  B322     1.0000 0.00000  0.67950  0.74200  Biso   1.000  B 
  B323     1.0000 0.00000  0.70580  0.64470  Biso   1.000  B 
  N11      1.0000 0.02799  0.78997  0.66359  Biso   1.000  N 
  B324     1.0000 0.00000  0.64470  0.70580  Biso   1.000  B 
  B325     1.0000 0.00000  0.66950  0.77510  Biso   1.000  B 
  B326     1.0000 0.00000  0.65650  0.65650  Biso   1.000  B 
  B327     1.0000 0.00000  0.61720  0.61720  Biso   1.000  B 
  B328     1.0000 0.00000  0.71490  0.61140  Biso   1.000  B 
  B329     1.0000 0.00000  0.61140  0.71490  Biso   1.000  B 
  B330     1.0000 0.00000  0.63260  0.57190  Biso   1.000  B 
  B331     1.0000 0.00000  0.57190  0.63260  Biso   1.000  B 
  H101     1.0000 0.06399  0.77824  0.65567  Biso   1.000  H 
  C41      1.0000 0.00768  0.81592  0.62050  Biso   1.000  C 
  C42      1.0000 0.04532  0.85112  0.59735  Biso   1.000  C 
  C43      1.0000 0.05784  0.89620  0.62956  Biso   1.000  C 
  H102     1.0000 0.03923  0.93298  0.61559  Biso   1.000  H 
  C44      1.0000 0.11479  0.90842  0.62600  Biso   1.000  C 
  H103     1.0000 0.04719  0.88989  0.66886  Biso   1.000  H 
  H104     1.0000 0.97280  0.83597  0.63080  Biso   1.000  H 
  H105     1.0000 0.99870  0.78900  0.59163  Biso   1.000  H 
  H106     1.0000 0.03099  0.86684  0.56172  Biso   1.000  H 
  H107     1.0000 0.07854  0.82865  0.58847  Biso   1.000  H 
  H108     1.0000 0.12039  0.94638  0.64085  Biso   1.000  H 
  H109     1.0000 0.12638  0.90815  0.58593  Biso   1.000  H 
  H110     1.0000 0.13713  0.88027  0.64822  Biso   1.000  H 
  B332     1.0000 0.00000  0.92810  0.13260  Biso   1.000  B 
  B333     1.0000 0.00000  0.88280  0.11720  Biso   1.000  B 
  B334     1.0000 0.00000  0.86740  0.07190  Biso   1.000  B 
  B335     1.0000 0.00000  0.84350  0.15650  Biso   1.000  B 
  B336     1.0000 0.00000  0.85530  0.20580  Biso   1.000  B 
  B337     1.0000 0.00000  0.79420  0.14470  Biso   1.000  B 
  B338     1.0000 0.00000  0.82050  0.24200  Biso   1.000  B 
  B339     1.0000 0.00000  0.88860  0.21490  Biso   1.000  B 
  B340     1.0000 0.00000  0.75800  0.17950  Biso   1.000  B 
  B341     1.0000 0.00000  0.78510  0.11140  Biso   1.000  B 
  B342     1.0000 0.00000  0.76930  0.23070  Biso   1.000  B 
  B343     1.0000 0.00000  0.73070  0.26930  Biso   1.000  B 
  B344     1.0000 0.00000  0.83050  0.27510  Biso   1.000  B 
  B345     1.0000 0.00000  0.74200  0.32050  Biso   1.000  B 
  B346     1.0000 0.00000  0.72490  0.16950  Biso   1.000  B 
  B347     1.0000 0.00000  0.67950  0.25800  Biso   1.000  B 
  B348     1.0000 0.00000  0.70580  0.35530  Biso   1.000  B 
  N12      1.0000 0.97201  0.78997  0.33641  Biso   1.000  N 
  B349     1.0000 0.00000  0.64470  0.29420  Biso   1.000  B 
  B350     1.0000 0.00000  0.66950  0.22490  Biso   1.000  B 
  B351     1.0000 0.00000  0.65650  0.34350  Biso   1.000  B 
  B352     1.0000 0.00000  0.61720  0.38280  Biso   1.000  B 
  B353     1.0000 0.00000  0.71490  0.38860  Biso   1.000  B 
  B354     1.0000 0.00000  0.61140  0.28510  Biso   1.000  B 
  B355     1.0000 0.00000  0.63260  0.42810  Biso   1.000  B 
  B356     1.0000 0.00000  0.57190  0.36740  Biso   1.000  B 
  H111     1.0000 0.93602  0.77824  0.34433  Biso   1.000  H 
  C45      1.0000 0.99232  0.81592  0.37950  Biso   1.000  C 
  C46      1.0000 0.95468  0.85112  0.40265  Biso   1.000  C 
  C47      1.0000 0.94216  0.89620  0.37044  Biso   1.000  C 
  H112     1.0000 0.96077  0.93298  0.38441  Biso   1.000  H 
  C48      1.0000 0.88521  0.90842  0.37400  Biso   1.000  C 
  H113     1.0000 0.95281  0.88989  0.33114  Biso   1.000  H 
  H114     1.0000 0.02720  0.83597  0.36920  Biso   1.000  H 
  H115     1.0000 0.00130  0.78900  0.40837  Biso   1.000  H 
  H116     1.0000 0.96901  0.86684  0.43828  Biso   1.000  H 
  H117     1.0000 0.92146  0.82865  0.41153  Biso   1.000  H 
  H118     1.0000 0.87961  0.94638  0.35915  Biso   1.000  H 
  H119     1.0000 0.87362  0.90815  0.41407  Biso   1.000  H 
  H120     1.0000 0.86287  0.88027  0.35178  Biso   1.000  H 
  B357     1.0000 0.13260  0.50000  0.57190  Biso   1.000  B 
  B358     1.0000 0.11720  0.50000  0.61720  Biso   1.000  B 
  B359     1.0000 0.07190  0.50000  0.63260  Biso   1.000  B 
  B360     1.0000 0.15650  0.50000  0.65650  Biso   1.000  B 
  B361     1.0000 0.20580  0.50000  0.64470  Biso   1.000  B 
  B362     1.0000 0.14470  0.50000  0.70580  Biso   1.000  B 
  B363     1.0000 0.24200  0.50000  0.67950  Biso   1.000  B 
  B364     1.0000 0.21490  0.50000  0.61140  Biso   1.000  B 
  B365     1.0000 0.17950  0.50000  0.74200  Biso   1.000  B 
  B366     1.0000 0.11140  0.50000  0.71490  Biso   1.000  B 
  B367     1.0000 0.23070  0.50000  0.73070  Biso   1.000  B 
  B368     1.0000 0.26930  0.50000  0.76930  Biso   1.000  B 
  B369     1.0000 0.27510  0.50000  0.66950  Biso   1.000  B 
  B370     1.0000 0.32050  0.50000  0.75800  Biso   1.000  B 
  B371     1.0000 0.16950  0.50000  0.77510  Biso   1.000  B 
  B372     1.0000 0.25800  0.50000  0.82050  Biso   1.000  B 
  B373     1.0000 0.35530  0.50000  0.79420  Biso   1.000  B 
  N13      1.0000 0.34103  0.48897  0.70606  Biso   1.000  N 
  B374     1.0000 0.29420  0.50000  0.85530  Biso   1.000  B 
  B375     1.0000 0.22490  0.50000  0.83050  Biso   1.000  B 
  B376     1.0000 0.34350  0.50000  0.84350  Biso   1.000  B 
  B377     1.0000 0.38280  0.50000  0.88280  Biso   1.000  B 
  B378     1.0000 0.38860  0.50000  0.78510  Biso   1.000  B 
  B379     1.0000 0.28510  0.50000  0.88860  Biso   1.000  B 
  B380     1.0000 0.42810  0.50000  0.86740  Biso   1.000  B 
  B381     1.0000 0.36740  0.50000  0.92810  Biso   1.000  B 
  H121     1.0000 0.36986  0.51386  0.69777  Biso   1.000  H 
  C49      1.0000 0.35889  0.43729  0.70120  Biso   1.000  C 
  C50      1.0000 0.36367  0.42233  0.64595  Biso   1.000  C 
  C51      1.0000 0.36576  0.36513  0.63984  Biso   1.000  C 
  H122     1.0000 0.39846  0.35107  0.66072  Biso   1.000  H 
  C52      1.0000 0.36988  0.34708  0.58569  Biso   1.000  C 
  H123     1.0000 0.33156  0.34834  0.65593  Biso   1.000  H 
  H124     1.0000 0.33185  0.41172  0.71945  Biso   1.000  H 
  H125     1.0000 0.39584  0.43311  0.71952  Biso   1.000  H 
  H126     1.0000 0.39796  0.43933  0.63039  Biso   1.000  H 
  H127     1.0000 0.33106  0.43673  0.62504  Biso   1.000  H 
  H128     1.0000 0.40774  0.35427  0.57104  Biso   1.000  H 
  H129     1.0000 0.34209  0.36591  0.56160  Biso   1.000  H 
  H130     1.0000 0.36303  0.30636  0.58547  Biso   1.000  H 
  B382     1.0000 0.86740  0.50000  0.57190  Biso   1.000  B 
  B383     1.0000 0.88280  0.50000  0.61720  Biso   1.000  B 
  B384     1.0000 0.92810  0.50000  0.63260  Biso   1.000  B 
  B385     1.0000 0.84350  0.50000  0.65650  Biso   1.000  B 
  B386     1.0000 0.79420  0.50000  0.64470  Biso   1.000  B 
  B387     1.0000 0.85530  0.50000  0.70580  Biso   1.000  B 
  B388     1.0000 0.75800  0.50000  0.67950  Biso   1.000  B 
  B389     1.0000 0.78510  0.50000  0.61140  Biso   1.000  B 
  B390     1.0000 0.82050  0.50000  0.74200  Biso   1.000  B 
  B391     1.0000 0.88860  0.50000  0.71490  Biso   1.000  B 
  B392     1.0000 0.76930  0.50000  0.73070  Biso   1.000  B 
  B393     1.0000 0.73070  0.50000  0.76930  Biso   1.000  B 
  B394     1.0000 0.72490  0.50000  0.66950  Biso   1.000  B 
  B395     1.0000 0.67950  0.50000  0.75800  Biso   1.000  B 
  B396     1.0000 0.83050  0.50000  0.77510  Biso   1.000  B 
  B397     1.0000 0.74200  0.50000  0.82050  Biso   1.000  B 
  B398     1.0000 0.64470  0.50000  0.79420  Biso   1.000  B 
  N14      1.0000 0.65897  0.51103  0.70606  Biso   1.000  N 
  B399     1.0000 0.70580  0.50000  0.85530  Biso   1.000  B 
  B400     1.0000 0.77510  0.50000  0.83050  Biso   1.000  B 
  B401     1.0000 0.65650  0.50000  0.84350  Biso   1.000  B 
  B402     1.0000 0.61720  0.50000  0.88280  Biso   1.000  B 
  B403     1.0000 0.61140  0.50000  0.78510  Biso   1.000  B 
  B404     1.0000 0.71490  0.50000  0.88860  Biso   1.000  B 
  B405     1.0000 0.57190  0.50000  0.86740  Biso   1.000  B 
  B406     1.0000 0.63260  0.50000  0.92810  Biso   1.000  B 
  H131     1.0000 0.63015  0.48614  0.69777  Biso   1.000  H 
  C53      1.0000 0.64111  0.56271  0.70120  Biso   1.000  C 
  C54      1.0000 0.63633  0.57767  0.64595  Biso   1.000  C 
  C55      1.0000 0.63424  0.63487  0.63984  Biso   1.000  C 
  H132     1.0000 0.60154  0.64893  0.66072  Biso   1.000  H 
  C56      1.0000 0.63012  0.65292  0.58569  Biso   1.000  C 
  H133     1.0000 0.66843  0.65166  0.65593  Biso   1.000  H 
  H134     1.0000 0.66815  0.58828  0.71945  Biso   1.000  H 
  H135     1.0000 0.60416  0.56689  0.71952  Biso   1.000  H 
  H136     1.0000 0.60204  0.56067  0.63039  Biso   1.000  H 
  H137     1.0000 0.66894  0.56327  0.62504  Biso   1.000  H 
  H138     1.0000 0.59226  0.64573  0.57104  Biso   1.000  H 
  H139     1.0000 0.65791  0.63409  0.56160  Biso   1.000  H 
  H140     1.0000 0.63697  0.69365  0.58547  Biso   1.000  H 
  B407     1.0000 0.86740  0.50000  0.42810  Biso   1.000  B 
  B408     1.0000 0.88280  0.50000  0.38280  Biso   1.000  B 
  B409     1.0000 0.92810  0.50000  0.36740  Biso   1.000  B 
  B410     1.0000 0.84350  0.50000  0.34350  Biso   1.000  B 
  B411     1.0000 0.79420  0.50000  0.35530  Biso   1.000  B 
  B412     1.0000 0.85530  0.50000  0.29420  Biso   1.000  B 
  B413     1.0000 0.75800  0.50000  0.32050  Biso   1.000  B 
  B414     1.0000 0.78510  0.50000  0.38860  Biso   1.000  B 
  B415     1.0000 0.82050  0.50000  0.25800  Biso   1.000  B 
  B416     1.0000 0.88860  0.50000  0.28510  Biso   1.000  B 
  B417     1.0000 0.76930  0.50000  0.26930  Biso   1.000  B 
  B418     1.0000 0.73070  0.50000  0.23070  Biso   1.000  B 
  B419     1.0000 0.72490  0.50000  0.33050  Biso   1.000  B 
  B420     1.0000 0.67950  0.50000  0.24200  Biso   1.000  B 
  B421     1.0000 0.83050  0.50000  0.22490  Biso   1.000  B 
  B422     1.0000 0.74200  0.50000  0.17950  Biso   1.000  B 
  B423     1.0000 0.64470  0.50000  0.20580  Biso   1.000  B 
  N15      1.0000 0.65897  0.48897  0.29394  Biso   1.000  N 
  B424     1.0000 0.70580  0.50000  0.14470  Biso   1.000  B 
  B425     1.0000 0.77510  0.50000  0.16950  Biso   1.000  B 
  B426     1.0000 0.65650  0.50000  0.15650  Biso   1.000  B 
  B427     1.0000 0.61720  0.50000  0.11720  Biso   1.000  B 
  B428     1.0000 0.61140  0.50000  0.21490  Biso   1.000  B 
  B429     1.0000 0.71490  0.50000  0.11140  Biso   1.000  B 
  B430     1.0000 0.57190  0.50000  0.13260  Biso   1.000  B 
  B431     1.0000 0.63260  0.50000  0.07190  Biso   1.000  B 
  H141     1.0000 0.63015  0.51386  0.30223  Biso   1.000  H 
  C57      1.0000 0.64111  0.43729  0.29880  Biso   1.000  C 
  C58      1.0000 0.63633  0.42233  0.35404  Biso   1.000  C 
  C59      1.0000 0.63424  0.36513  0.36016  Biso   1.000  C 
  H142     1.0000 0.60154  0.35107  0.33928  Biso   1.000  H 
  C60      1.0000 0.63012  0.34708  0.41431  Biso   1.000  C 
  H143     1.0000 0.66843  0.34834  0.34407  Biso   1.000  H 
  H144     1.0000 0.66815  0.41172  0.28055  Biso   1.000  H 
  H145     1.0000 0.60416  0.43311  0.28048  Biso   1.000  H 
  H146     1.0000 0.60204  0.43933  0.36961  Biso   1.000  H 
  H147     1.0000 0.66894  0.43673  0.37496  Biso   1.000  H 
  H148     1.0000 0.59226  0.35427  0.42896  Biso   1.000  H 
  H149     1.0000 0.65791  0.36591  0.43840  Biso   1.000  H 
  H150     1.0000 0.63697  0.30636  0.41453  Biso   1.000  H 
  B432     1.0000 0.13260  0.50000  0.42810  Biso   1.000  B 
  B433     1.0000 0.11720  0.50000  0.38280  Biso   1.000  B 
  B434     1.0000 0.07190  0.50000  0.36740  Biso   1.000  B 
  B435     1.0000 0.15650  0.50000  0.34350  Biso   1.000  B 
  B436     1.0000 0.20580  0.50000  0.35530  Biso   1.000  B 
  B437     1.0000 0.14470  0.50000  0.29420  Biso   1.000  B 
  B438     1.0000 0.24200  0.50000  0.32050  Biso   1.000  B 
  B439     1.0000 0.21490  0.50000  0.38860  Biso   1.000  B 
  B440     1.0000 0.17950  0.50000  0.25800  Biso   1.000  B 
  B441     1.0000 0.11140  0.50000  0.28510  Biso   1.000  B 
  B442     1.0000 0.23070  0.50000  0.26930  Biso   1.000  B 
  B443     1.0000 0.26930  0.50000  0.23070  Biso   1.000  B 
  B444     1.0000 0.27510  0.50000  0.33050  Biso   1.000  B 
  B445     1.0000 0.32050  0.50000  0.24200  Biso   1.000  B 
  B446     1.0000 0.16950  0.50000  0.22490  Biso   1.000  B 
  B447     1.0000 0.25800  0.50000  0.17950  Biso   1.000  B 
  B448     1.0000 0.35530  0.50000  0.20580  Biso   1.000  B 
  N16      1.0000 0.34103  0.51103  0.29394  Biso   1.000  N 
  B449     1.0000 0.29420  0.50000  0.14470  Biso   1.000  B 
  B450     1.0000 0.22490  0.50000  0.16950  Biso   1.000  B 
  B451     1.0000 0.34350  0.50000  0.15650  Biso   1.000  B 
  B452     1.0000 0.38280  0.50000  0.11720  Biso   1.000  B 
  B453     1.0000 0.38860  0.50000  0.21490  Biso   1.000  B 
  B454     1.0000 0.28510  0.50000  0.11140  Biso   1.000  B 
  B455     1.0000 0.42810  0.50000  0.13260  Biso   1.000  B 
  B456     1.0000 0.36740  0.50000  0.07190  Biso   1.000  B 
  H151     1.0000 0.36986  0.48614  0.30223  Biso   1.000  H 
  C61      1.0000 0.35889  0.56271  0.29880  Biso   1.000  C 
  C62      1.0000 0.36367  0.57767  0.35404  Biso   1.000  C 
  C63      1.0000 0.36576  0.63487  0.36016  Biso   1.000  C 
  H152     1.0000 0.39846  0.64893  0.33928  Biso   1.000  H 
  C64      1.0000 0.36988  0.65292  0.41431  Biso   1.000  C 
  H153     1.0000 0.33156  0.65166  0.34407  Biso   1.000  H 
  H154     1.0000 0.33185  0.58828  0.28055  Biso   1.000  H 
  H155     1.0000 0.39584  0.56689  0.28048  Biso   1.000  H 
  H156     1.0000 0.39796  0.56067  0.36961  Biso   1.000  H 
  H157     1.0000 0.33106  0.56327  0.37496  Biso   1.000  H 
  H158     1.0000 0.40774  0.64573  0.42896  Biso   1.000  H 
  H159     1.0000 0.34209  0.63409  0.43840  Biso   1.000  H 
  H160     1.0000 0.36303  0.69365  0.41453  Biso   1.000  H 
  B457     1.0000 0.07190  0.63260  0.50000  Biso   1.000  B 
  B458     1.0000 0.11720  0.61720  0.50000  Biso   1.000  B 
  B459     1.0000 0.13260  0.57190  0.50000  Biso   1.000  B 
  B460     1.0000 0.15650  0.65650  0.50000  Biso   1.000  B 
  B461     1.0000 0.14470  0.70580  0.50000  Biso   1.000  B 
  B462     1.0000 0.20580  0.64470  0.50000  Biso   1.000  B 
  B463     1.0000 0.17950  0.74200  0.50000  Biso   1.000  B 
  B464     1.0000 0.11140  0.71490  0.50000  Biso   1.000  B 
  B465     1.0000 0.24200  0.67950  0.50000  Biso   1.000  B 
  B466     1.0000 0.21490  0.61140  0.50000  Biso   1.000  B 
  B467     1.0000 0.23070  0.73070  0.50000  Biso   1.000  B 
  B468     1.0000 0.26930  0.76930  0.50000  Biso   1.000  B 
  B469     1.0000 0.16950  0.77510  0.50000  Biso   1.000  B 
  B470     1.0000 0.25800  0.82050  0.50000  Biso   1.000  B 
  B471     1.0000 0.27510  0.66950  0.50000  Biso   1.000  B 
  B472     1.0000 0.32050  0.75800  0.50000  Biso   1.000  B 
  B473     1.0000 0.29420  0.85530  0.50000  Biso   1.000  B 
  N17      1.0000 0.20686  0.84025  0.48643  Biso   1.000  N 
  B474     1.0000 0.35530  0.79420  0.50000  Biso   1.000  B 
  B475     1.0000 0.33050  0.72490  0.50000  Biso   1.000  B 
  B476     1.0000 0.34350  0.84350  0.50000  Biso   1.000  B 
  B477     1.0000 0.38280  0.88280  0.50000  Biso   1.000  B 
  B478     1.0000 0.28510  0.88860  0.50000  Biso   1.000  B 
  B479     1.0000 0.38860  0.78510  0.50000  Biso   1.000  B 
  B480     1.0000 0.36740  0.92810  0.50000  Biso   1.000  B 
  B481     1.0000 0.42810  0.86740  0.50000  Biso   1.000  B 
  H161     1.0000 0.19266  0.86336  0.51427  Biso   1.000  H 
  C65      1.0000 0.20796  0.86397  0.43727  Biso   1.000  C 
  C66      1.0000 0.15495  0.86051  0.41957  Biso   1.000  C 
  C67      1.0000 0.14943  0.85836  0.36109  Biso   1.000  C 
  H162     1.0000 0.18243  0.84223  0.34427  Biso   1.000  H 
  C68      1.0000 0.14484  0.91119  0.33960  Biso   1.000  C 
  H163     1.0000 0.11532  0.83650  0.35216  Biso   1.000  H 
  H164     1.0000 0.23752  0.84812  0.41370  Biso   1.000  H 
  H165     1.0000 0.21621  0.90471  0.43955  Biso   1.000  H 
  H166     1.0000 0.13720  0.89568  0.43068  Biso   1.000  H 
  H167     1.0000 0.13101  0.82988  0.43595  Biso   1.000  H 
  H168     1.0000 0.13124  0.91125  0.30081  Biso   1.000  H 
  H169     1.0000 0.18226  0.92899  0.34083  Biso   1.000  H 
  H170     1.0000 0.11976  0.93511  0.36163  Biso   1.000  H 
  B482     1.0000 0.07190  0.36740  0.50000  Biso   1.000  B 
  B483     1.0000 0.11720  0.38280  0.50000  Biso   1.000  B 
  B484     1.0000 0.13260  0.42810  0.50000  Biso   1.000  B 
  B485     1.0000 0.15650  0.34350  0.50000  Biso   1.000  B 
  B486     1.0000 0.14470  0.29420  0.50000  Biso   1.000  B 
  B487     1.0000 0.20580  0.35530  0.50000  Biso   1.000  B 
  B488     1.0000 0.17950  0.25800  0.50000  Biso   1.000  B 
  B489     1.0000 0.11140  0.28510  0.50000  Biso   1.000  B 
  B490     1.0000 0.24200  0.32050  0.50000  Biso   1.000  B 
  B491     1.0000 0.21490  0.38860  0.50000  Biso   1.000  B 
  B492     1.0000 0.23070  0.26930  0.50000  Biso   1.000  B 
  B493     1.0000 0.26930  0.23070  0.50000  Biso   1.000  B 
  B494     1.0000 0.16950  0.22490  0.50000  Biso   1.000  B 
  B495     1.0000 0.25800  0.17950  0.50000  Biso   1.000  B 
  B496     1.0000 0.27510  0.33050  0.50000  Biso   1.000  B 
  B497     1.0000 0.32050  0.24200  0.50000  Biso   1.000  B 
  B498     1.0000 0.29420  0.14470  0.50000  Biso   1.000  B 
  N18      1.0000 0.20686  0.15975  0.51357  Biso   1.000  N 
  B499     1.0000 0.35530  0.20580  0.50000  Biso   1.000  B 
  B500     1.0000 0.33050  0.27510  0.50000  Biso   1.000  B 
  B501     1.0000 0.34350  0.15650  0.50000  Biso   1.000  B 
  B502     1.0000 0.38280  0.11720  0.50000  Biso   1.000  B 
  B503     1.0000 0.28510  0.11140  0.50000  Biso   1.000  B 
  B504     1.0000 0.38860  0.21490  0.50000  Biso   1.000  B 
  B505     1.0000 0.36740  0.07190  0.50000  Biso   1.000  B 
  B506     1.0000 0.42810  0.13260  0.50000  Biso   1.000  B 
  H171     1.0000 0.19266  0.13664  0.48573  Biso   1.000  H 
  C69      1.0000 0.20796  0.13603  0.56273  Biso   1.000  C 
  C70      1.0000 0.15495  0.13949  0.58043  Biso   1.000  C 
  C71      1.0000 0.14943  0.14164  0.63891  Biso   1.000  C 
  H172     1.0000 0.18243  0.15777  0.65573  Biso   1.000  H 
  C72      1.0000 0.14484  0.08880  0.66040  Biso   1.000  C 
  H173     1.0000 0.11532  0.16350  0.64784  Biso   1.000  H 
  H174     1.0000 0.23752  0.15188  0.58630  Biso   1.000  H 
  H175     1.0000 0.21621  0.09529  0.56045  Biso   1.000  H 
  H176     1.0000 0.13720  0.10432  0.56932  Biso   1.000  H 
  H177     1.0000 0.13101  0.17012  0.56405  Biso   1.000  H 
  H178     1.0000 0.13124  0.08875  0.69919  Biso   1.000  H 
  H179     1.0000 0.18226  0.07101  0.65917  Biso   1.000  H 
  H180     1.0000 0.11976  0.06489  0.63837  Biso   1.000  H 
  B507     1.0000 0.92810  0.36740  0.50000  Biso   1.000  B 
  B508     1.0000 0.88280  0.38280  0.50000  Biso   1.000  B 
  B509     1.0000 0.86740  0.42810  0.50000  Biso   1.000  B 
  B510     1.0000 0.84350  0.34350  0.50000  Biso   1.000  B 
  B511     1.0000 0.85530  0.29420  0.50000  Biso   1.000  B 
  B512     1.0000 0.79420  0.35530  0.50000  Biso   1.000  B 
  B513     1.0000 0.82050  0.25800  0.50000  Biso   1.000  B 
  B514     1.0000 0.88860  0.28510  0.50000  Biso   1.000  B 
  B515     1.0000 0.75800  0.32050  0.50000  Biso   1.000  B 
  B516     1.0000 0.78510  0.38860  0.50000  Biso   1.000  B 
  B517     1.0000 0.76930  0.26930  0.50000  Biso   1.000  B 
  B518     1.0000 0.73070  0.23070  0.50000  Biso   1.000  B 
  B519     1.0000 0.83050  0.22490  0.50000  Biso   1.000  B 
  B520     1.0000 0.74200  0.17950  0.50000  Biso   1.000  B 
  B521     1.0000 0.72490  0.33050  0.50000  Biso   1.000  B 
  B522     1.0000 0.67950  0.24200  0.50000  Biso   1.000  B 
  B523     1.0000 0.70580  0.14470  0.50000  Biso   1.000  B 
  N19      1.0000 0.79314  0.15975  0.48643  Biso   1.000  N 
  B524     1.0000 0.64470  0.20580  0.50000  Biso   1.000  B 
  B525     1.0000 0.66950  0.27510  0.50000  Biso   1.000  B 
  B526     1.0000 0.65650  0.15650  0.50000  Biso   1.000  B 
  B527     1.0000 0.61720  0.11720  0.50000  Biso   1.000  B 
  B528     1.0000 0.71490  0.11140  0.50000  Biso   1.000  B 
  B529     1.0000 0.61140  0.21490  0.50000  Biso   1.000  B 
  B530     1.0000 0.63260  0.07190  0.50000  Biso   1.000  B 
  B531     1.0000 0.57190  0.13260  0.50000  Biso   1.000  B 
  H181     1.0000 0.80734  0.13664  0.51427  Biso   1.000  H 
  C73      1.0000 0.79204  0.13603  0.43727  Biso   1.000  C 
  C74      1.0000 0.84505  0.13949  0.41957  Biso   1.000  C 
  C75      1.0000 0.85057  0.14164  0.36109  Biso   1.000  C 
  H182     1.0000 0.81757  0.15777  0.34427  Biso   1.000  H 
  C76      1.0000 0.85516  0.08880  0.33960  Biso   1.000  C 
  H183     1.0000 0.88468  0.16350  0.35216  Biso   1.000  H 
  H184     1.0000 0.76248  0.15188  0.41370  Biso   1.000  H 
  H185     1.0000 0.78379  0.09529  0.43955  Biso   1.000  H 
  H186     1.0000 0.86280  0.10432  0.43068  Biso   1.000  H 
  H187     1.0000 0.86898  0.17012  0.43595  Biso   1.000  H 
  H188     1.0000 0.86876  0.08875  0.30081  Biso   1.000  H 
  H189     1.0000 0.81773  0.07101  0.34083  Biso   1.000  H 
  H190     1.0000 0.88024  0.06489  0.36163  Biso   1.000  H 
  B532     1.0000 0.92810  0.63260  0.50000  Biso   1.000  B 
  B533     1.0000 0.88280  0.61720  0.50000  Biso   1.000  B 
  B534     1.0000 0.86740  0.57190  0.50000  Biso   1.000  B 
  B535     1.0000 0.84350  0.65650  0.50000  Biso   1.000  B 
  B536     1.0000 0.85530  0.70580  0.50000  Biso   1.000  B 
  B537     1.0000 0.79420  0.64470  0.50000  Biso   1.000  B 
  B538     1.0000 0.82050  0.74200  0.50000  Biso   1.000  B 
  B539     1.0000 0.88860  0.71490  0.50000  Biso   1.000  B 
  B540     1.0000 0.75800  0.67950  0.50000  Biso   1.000  B 
  B541     1.0000 0.78510  0.61140  0.50000  Biso   1.000  B 
  B542     1.0000 0.76930  0.73070  0.50000  Biso   1.000  B 
  B543     1.0000 0.73070  0.76930  0.50000  Biso   1.000  B 
  B544     1.0000 0.83050  0.77510  0.50000  Biso   1.000  B 
  B545     1.0000 0.74200  0.82050  0.50000  Biso   1.000  B 
  B546     1.0000 0.72490  0.66950  0.50000  Biso   1.000  B 
  B547     1.0000 0.67950  0.75800  0.50000  Biso   1.000  B 
  B548     1.0000 0.70580  0.85530  0.50000  Biso   1.000  B 
  N20      1.0000 0.79314  0.84025  0.51357  Biso   1.000  N 
  B549     1.0000 0.64470  0.79420  0.50000  Biso   1.000  B 
  B550     1.0000 0.66950  0.72490  0.50000  Biso   1.000  B 
  B551     1.0000 0.65650  0.84350  0.50000  Biso   1.000  B 
  B552     1.0000 0.61720  0.88280  0.50000  Biso   1.000  B 
  B553     1.0000 0.71490  0.88860  0.50000  Biso   1.000  B 
  B554     1.0000 0.61140  0.78510  0.50000  Biso   1.000  B 
  B555     1.0000 0.63260  0.92810  0.50000  Biso   1.000  B 
  B556     1.0000 0.57190  0.86740  0.50000  Biso   1.000  B 
  H191     1.0000 0.80734  0.86336  0.48573  Biso   1.000  H 
  C77      1.0000 0.79204  0.86397  0.56273  Biso   1.000  C 
  C78      1.0000 0.84505  0.86051  0.58043  Biso   1.000  C 
  C79      1.0000 0.85057  0.85836  0.63891  Biso   1.000  C 
  H192     1.0000 0.81757  0.84223  0.65573  Biso   1.000  H 
  C80      1.0000 0.85516  0.91119  0.66040  Biso   1.000  C 
  H193     1.0000 0.88468  0.83650  0.64784  Biso   1.000  H 
  H194     1.0000 0.76248  0.84812  0.58630  Biso   1.000  H 
  H195     1.0000 0.78379  0.90471  0.56045  Biso   1.000  H 
  H196     1.0000 0.86280  0.89568  0.56932  Biso   1.000  H 
  H197     1.0000 0.86898  0.82988  0.56405  Biso   1.000  H 
  H198     1.0000 0.86876  0.91125  0.69919  Biso   1.000  H 
  H199     1.0000 0.81773  0.92899  0.65917  Biso   1.000  H 
  H200     1.0000 0.88024  0.93511  0.63837  Biso   1.000  H 
  B557     1.0000 0.50000  0.07190  0.63260  Biso   1.000  B 
  B558     1.0000 0.50000  0.11720  0.61720  Biso   1.000  B 
  B559     1.0000 0.50000  0.13260  0.57190  Biso   1.000  B 
  B560     1.0000 0.50000  0.15650  0.65650  Biso   1.000  B 
  B561     1.0000 0.50000  0.14470  0.70580  Biso   1.000  B 
  B562     1.0000 0.50000  0.20580  0.64470  Biso   1.000  B 
  B563     1.0000 0.50000  0.17950  0.74200  Biso   1.000  B 
  B564     1.0000 0.50000  0.11140  0.71490  Biso   1.000  B 
  B565     1.0000 0.50000  0.24200  0.67950  Biso   1.000  B 
  B566     1.0000 0.50000  0.21490  0.61140  Biso   1.000  B 
  B567     1.0000 0.50000  0.23070  0.73070  Biso   1.000  B 
  B568     1.0000 0.50000  0.26930  0.76930  Biso   1.000  B 
  B569     1.0000 0.50000  0.16950  0.77510  Biso   1.000  B 
  B570     1.0000 0.50000  0.25800  0.82050  Biso   1.000  B 
  B571     1.0000 0.50000  0.27510  0.66950  Biso   1.000  B 
  B572     1.0000 0.50000  0.32050  0.75800  Biso   1.000  B 
  B573     1.0000 0.50000  0.29420  0.85530  Biso   1.000  B 
  N21      1.0000 0.48280  0.20538  0.84027  Biso   1.000  N 
  B574     1.0000 0.50000  0.35530  0.79420  Biso   1.000  B 
  B575     1.0000 0.50000  0.33050  0.72490  Biso   1.000  B 
  B576     1.0000 0.50000  0.34350  0.84350  Biso   1.000  B 
  B577     1.0000 0.50000  0.38280  0.88280  Biso   1.000  B 
  B578     1.0000 0.50000  0.28510  0.88860  Biso   1.000  B 
  B579     1.0000 0.50000  0.38860  0.78510  Biso   1.000  B 
  B580     1.0000 0.50000  0.36740  0.92810  Biso   1.000  B 
  B581     1.0000 0.50000  0.42810  0.86740  Biso   1.000  B 
  H201     1.0000 0.50652  0.19346  0.86861  Biso   1.000  H 
  C81      1.0000 0.43512  0.19946  0.86356  Biso   1.000  C 
  C82      1.0000 0.39724  0.17768  0.82636  Biso   1.000  C 
  C83      1.0000 0.34479  0.18812  0.84982  Biso   1.000  C 
  H202     1.0000 0.34050  0.16910  0.88574  Biso   1.000  H 
  C84      1.0000 0.30441  0.16813  0.81392  Biso   1.000  C 
  H203     1.0000 0.33928  0.22874  0.85554  Biso   1.000  H 
  H204     1.0000 0.42133  0.23714  0.87766  Biso   1.000  H 
  H205     1.0000 0.43733  0.17139  0.89341  Biso   1.000  H 
  H206     1.0000 0.40341  0.13638  0.81757  Biso   1.000  H 
  H207     1.0000 0.40208  0.19944  0.79174  Biso   1.000  H 
  H208     1.0000 0.27054  0.15643  0.83477  Biso   1.000  H 
  H209     1.0000 0.31837  0.13435  0.79254  Biso   1.000  H 
  H210     1.0000 0.29564  0.19937  0.78860  Biso   1.000  H 
  B582     1.0000 0.50000  0.07190  0.36740  Biso   1.000  B 
  B583     1.0000 0.50000  0.11720  0.38280  Biso   1.000  B 
  B584     1.0000 0.50000  0.13260  0.42810  Biso   1.000  B 
  B585     1.0000 0.50000  0.15650  0.34350  Biso   1.000  B 
  B586     1.0000 0.50000  0.14470  0.29420  Biso   1.000  B 
  B587     1.0000 0.50000  0.20580  0.35530  Biso   1.000  B 
  B588     1.0000 0.50000  0.17950  0.25800  Biso   1.000  B 
  B589     1.0000 0.50000  0.11140  0.28510  Biso   1.000  B 
  B590     1.0000 0.50000  0.24200  0.32050  Biso   1.000  B 
  B591     1.0000 0.50000  0.21490  0.38860  Biso   1.000  B 
  B592     1.0000 0.50000  0.23070  0.26930  Biso   1.000  B 
  B593     1.0000 0.50000  0.26930  0.23070  Biso   1.000  B 
  B594     1.0000 0.50000  0.16950  0.22490  Biso   1.000  B 
  B595     1.0000 0.50000  0.25800  0.17950  Biso   1.000  B 
  B596     1.0000 0.50000  0.27510  0.33050  Biso   1.000  B 
  B597     1.0000 0.50000  0.32050  0.24200  Biso   1.000  B 
  B598     1.0000 0.50000  0.29420  0.14470  Biso   1.000  B 
  N22      1.0000 0.51720  0.20538  0.15973  Biso   1.000  N 
  B599     1.0000 0.50000  0.35530  0.20580  Biso   1.000  B 
  B600     1.0000 0.50000  0.33050  0.27510  Biso   1.000  B 
  B601     1.0000 0.50000  0.34350  0.15650  Biso   1.000  B 
  B602     1.0000 0.50000  0.38280  0.11720  Biso   1.000  B 
  B603     1.0000 0.50000  0.28510  0.11140  Biso   1.000  B 
  B604     1.0000 0.50000  0.38860  0.21490  Biso   1.000  B 
  B605     1.0000 0.50000  0.36740  0.07190  Biso   1.000  B 
  B606     1.0000 0.50000  0.42810  0.13260  Biso   1.000  B 
  H211     1.0000 0.49348  0.19346  0.13139  Biso   1.000  H 
  C85      1.0000 0.56488  0.19946  0.13644  Biso   1.000  C 
  C86      1.0000 0.60276  0.17768  0.17364  Biso   1.000  C 
  C87      1.0000 0.65522  0.18812  0.15018  Biso   1.000  C 
  H212     1.0000 0.65950  0.16910  0.11426  Biso   1.000  H 
  C88      1.0000 0.69559  0.16813  0.18608  Biso   1.000  C 
  H213     1.0000 0.66072  0.22874  0.14446  Biso   1.000  H 
  H214     1.0000 0.57867  0.23714  0.12234  Biso   1.000  H 
  H215     1.0000 0.56267  0.17139  0.10659  Biso   1.000  H 
  H216     1.0000 0.59659  0.13638  0.18243  Biso   1.000  H 
  H217     1.0000 0.59792  0.19944  0.20826  Biso   1.000  H 
  H218     1.0000 0.72946  0.15643  0.16523  Biso   1.000  H 
  H219     1.0000 0.68163  0.13435  0.20746  Biso   1.000  H 
  H220     1.0000 0.70436  0.19937  0.21140  Biso   1.000  H 
  B607     1.0000 0.50000  0.92810  0.36740  Biso   1.000  B 
  B608     1.0000 0.50000  0.88280  0.38280  Biso   1.000  B 
  B609     1.0000 0.50000  0.86740  0.42810  Biso   1.000  B 
  B610     1.0000 0.50000  0.84350  0.34350  Biso   1.000  B 
  B611     1.0000 0.50000  0.85530  0.29420  Biso   1.000  B 
  B612     1.0000 0.50000  0.79420  0.35530  Biso   1.000  B 
  B613     1.0000 0.50000  0.82050  0.25800  Biso   1.000  B 
  B614     1.0000 0.50000  0.88860  0.28510  Biso   1.000  B 
  B615     1.0000 0.50000  0.75800  0.32050  Biso   1.000  B 
  B616     1.0000 0.50000  0.78510  0.38860  Biso   1.000  B 
  B617     1.0000 0.50000  0.76930  0.26930  Biso   1.000  B 
  B618     1.0000 0.50000  0.73070  0.23070  Biso   1.000  B 
  B619     1.0000 0.50000  0.83050  0.22490  Biso   1.000  B 
  B620     1.0000 0.50000  0.74200  0.17950  Biso   1.000  B 
  B621     1.0000 0.50000  0.72490  0.33050  Biso   1.000  B 
  B622     1.0000 0.50000  0.67950  0.24200  Biso   1.000  B 
  B623     1.0000 0.50000  0.70580  0.14470  Biso   1.000  B 
  N23      1.0000 0.48280  0.79462  0.15973  Biso   1.000  N 
  B624     1.0000 0.50000  0.64470  0.20580  Biso   1.000  B 
  B625     1.0000 0.50000  0.66950  0.27510  Biso   1.000  B 
  B626     1.0000 0.50000  0.65650  0.15650  Biso   1.000  B 
  B627     1.0000 0.50000  0.61720  0.11720  Biso   1.000  B 
  B628     1.0000 0.50000  0.71490  0.11140  Biso   1.000  B 
  B629     1.0000 0.50000  0.61140  0.21490  Biso   1.000  B 
  B630     1.0000 0.50000  0.63260  0.07190  Biso   1.000  B 
  B631     1.0000 0.50000  0.57190  0.13260  Biso   1.000  B 
  H221     1.0000 0.50652  0.80654  0.13139  Biso   1.000  H 
  C89      1.0000 0.43512  0.80054  0.13644  Biso   1.000  C 
  C90      1.0000 0.39724  0.82232  0.17364  Biso   1.000  C 
  C91      1.0000 0.34479  0.81188  0.15018  Biso   1.000  C 
  H222     1.0000 0.34050  0.83090  0.11426  Biso   1.000  H 
  C92      1.0000 0.30441  0.83187  0.18608  Biso   1.000  C 
  H223     1.0000 0.33928  0.77126  0.14446  Biso   1.000  H 
  H224     1.0000 0.42133  0.76286  0.12234  Biso   1.000  H 
  H225     1.0000 0.43733  0.82861  0.10659  Biso   1.000  H 
  H226     1.0000 0.40341  0.86362  0.18243  Biso   1.000  H 
  H227     1.0000 0.40208  0.80056  0.20826  Biso   1.000  H 
  H228     1.0000 0.27054  0.84357  0.16523  Biso   1.000  H 
  H229     1.0000 0.31837  0.86565  0.20746  Biso   1.000  H 
  H230     1.0000 0.29564  0.80064  0.21140  Biso   1.000  H 
  B632     1.0000 0.50000  0.92810  0.63260  Biso   1.000  B 
  B633     1.0000 0.50000  0.88280  0.61720  Biso   1.000  B 
  B634     1.0000 0.50000  0.86740  0.57190  Biso   1.000  B 
  B635     1.0000 0.50000  0.84350  0.65650  Biso   1.000  B 
  B636     1.0000 0.50000  0.85530  0.70580  Biso   1.000  B 
  B637     1.0000 0.50000  0.79420  0.64470  Biso   1.000  B 
  B638     1.0000 0.50000  0.82050  0.74200  Biso   1.000  B 
  B639     1.0000 0.50000  0.88860  0.71490  Biso   1.000  B 
  B640     1.0000 0.50000  0.75800  0.67950  Biso   1.000  B 
  B641     1.0000 0.50000  0.78510  0.61140  Biso   1.000  B 
  B642     1.0000 0.50000  0.76930  0.73070  Biso   1.000  B 
  B643     1.0000 0.50000  0.73070  0.76930  Biso   1.000  B 
  B644     1.0000 0.50000  0.83050  0.77510  Biso   1.000  B 
  B645     1.0000 0.50000  0.74200  0.82050  Biso   1.000  B 
  B646     1.0000 0.50000  0.72490  0.66950  Biso   1.000  B 
  B647     1.0000 0.50000  0.67950  0.75800  Biso   1.000  B 
  B648     1.0000 0.50000  0.70580  0.85530  Biso   1.000  B 
  N24      1.0000 0.51720  0.79462  0.84027  Biso   1.000  N 
  B649     1.0000 0.50000  0.64470  0.79420  Biso   1.000  B 
  B650     1.0000 0.50000  0.66950  0.72490  Biso   1.000  B 
  B651     1.0000 0.50000  0.65650  0.84350  Biso   1.000  B 
  B652     1.0000 0.50000  0.61720  0.88280  Biso   1.000  B 
  B653     1.0000 0.50000  0.71490  0.88860  Biso   1.000  B 
  B654     1.0000 0.50000  0.61140  0.78510  Biso   1.000  B 
  B655     1.0000 0.50000  0.63260  0.92810  Biso   1.000  B 
  B656     1.0000 0.50000  0.57190  0.86740  Biso   1.000  B 
  H231     1.0000 0.49348  0.80654  0.86861  Biso   1.000  H 
  C93      1.0000 0.56488  0.80054  0.86356  Biso   1.000  C 
  C94      1.0000 0.60276  0.82232  0.82636  Biso   1.000  C 
  C95      1.0000 0.65522  0.81188  0.84982  Biso   1.000  C 
  H232     1.0000 0.65950  0.83090  0.88574  Biso   1.000  H 
  C96      1.0000 0.69559  0.83187  0.81392  Biso   1.000  C 
  H233     1.0000 0.66072  0.77126  0.85554  Biso   1.000  H 
  H234     1.0000 0.57867  0.76286  0.87766  Biso   1.000  H 
  H235     1.0000 0.56267  0.82861  0.89341  Biso   1.000  H 
  H236     1.0000 0.59659  0.86362  0.81757  Biso   1.000  H 
  H237     1.0000 0.59792  0.80056  0.79174  Biso   1.000  H 
  H238     1.0000 0.72946  0.84357  0.83477  Biso   1.000  H 
  H239     1.0000 0.68163  0.86565  0.79254  Biso   1.000  H 
  H240     1.0000 0.70436  0.80064  0.78860  Biso   1.000  H 
