data_image0
_cell_length_a       26.896
_cell_length_b       26.896
_cell_length_c       26.896
_cell_angle_alpha    90
_cell_angle_beta     90
_cell_angle_gamma    90

_symmetry_space_group_name_H-M    "P 1"
_symmetry_int_tables_number       1

loop_
  _symmetry_equiv_pos_as_xyz
  'x, y, z'

loop_
  _atom_site_label
  _atom_site_occupancy
  _atom_site_fract_x
  _atom_site_fract_y
  _atom_site_fract_z
  _atom_site_thermal_displace_type
  _atom_site_B_iso_or_equiv
  _atom_site_type_symbol
  B1       1.0000 0.09204  0.00000  0.00000  Biso   1.000  B 
  B2       1.0000 0.90796  0.00000  0.00000  Biso   1.000  B 
  B3       1.0000 0.00000  0.09204  0.00000  Biso   1.000  B 
  B4       1.0000 0.00000  0.90796  0.00000  Biso   1.000  B 
  B5       1.0000 0.00000  0.00000  0.09204  Biso   1.000  B 
  B6       1.0000 0.00000  0.00000  0.90796  Biso   1.000  B 
  B7       1.0000 0.09204  0.50000  0.50000  Biso   1.000  B 
  B8       1.0000 0.90796  0.50000  0.50000  Biso   1.000  B 
  B9       1.0000 0.00000  0.59204  0.50000  Biso   1.000  B 
  B10      1.0000 0.00000  0.40796  0.50000  Biso   1.000  B 
  B11      1.0000 0.00000  0.50000  0.59204  Biso   1.000  B 
  B12      1.0000 0.00000  0.50000  0.40796  Biso   1.000  B 
  B13      1.0000 0.59204  0.00000  0.50000  Biso   1.000  B 
  B14      1.0000 0.40796  0.00000  0.50000  Biso   1.000  B 
  B15      1.0000 0.50000  0.09204  0.50000  Biso   1.000  B 
  B16      1.0000 0.50000  0.90796  0.50000  Biso   1.000  B 
  B17      1.0000 0.50000  0.00000  0.59204  Biso   1.000  B 
  B18      1.0000 0.50000  0.00000  0.40796  Biso   1.000  B 
  B19      1.0000 0.59204  0.50000  0.00000  Biso   1.000  B 
  B20      1.0000 0.40796  0.50000  0.00000  Biso   1.000  B 
  B21      1.0000 0.50000  0.59204  0.00000  Biso   1.000  B 
  B22      1.0000 0.50000  0.40796  0.00000  Biso   1.000  B 
  B23      1.0000 0.50000  0.50000  0.09204  Biso   1.000  B 
  B24      1.0000 0.50000  0.50000  0.90796  Biso   1.000  B 
  B25      1.0000 0.04540  0.04540  0.04540  Biso   1.000  B 
  B26      1.0000 0.95460  0.95460  0.04540  Biso   1.000  B 
  B27      1.0000 0.95460  0.04540  0.95460  Biso   1.000  B 
  B28      1.0000 0.04540  0.95460  0.95460  Biso   1.000  B 
  B29      1.0000 0.04540  0.04540  0.95460  Biso   1.000  B 
  B30      1.0000 0.95460  0.95460  0.95460  Biso   1.000  B 
  B31      1.0000 0.04540  0.95460  0.04540  Biso   1.000  B 
  B32      1.0000 0.95460  0.04540  0.04540  Biso   1.000  B 
  B33      1.0000 0.04540  0.54540  0.54540  Biso   1.000  B 
  B34      1.0000 0.95460  0.45460  0.54540  Biso   1.000  B 
  B35      1.0000 0.95460  0.54540  0.45460  Biso   1.000  B 
  B36      1.0000 0.04540  0.45460  0.45460  Biso   1.000  B 
  B37      1.0000 0.04540  0.54540  0.45460  Biso   1.000  B 
  B38      1.0000 0.95460  0.45460  0.45460  Biso   1.000  B 
  B39      1.0000 0.04540  0.45460  0.54540  Biso   1.000  B 
  B40      1.0000 0.95460  0.54540  0.54540  Biso   1.000  B 
  B41      1.0000 0.54540  0.04540  0.54540  Biso   1.000  B 
  B42      1.0000 0.45460  0.95460  0.54540  Biso   1.000  B 
  B43      1.0000 0.45460  0.04540  0.45460  Biso   1.000  B 
  B44      1.0000 0.54540  0.95460  0.45460  Biso   1.000  B 
  B45      1.0000 0.54540  0.04540  0.45460  Biso   1.000  B 
  B46      1.0000 0.45460  0.95460  0.45460  Biso   1.000  B 
  B47      1.0000 0.54540  0.95460  0.54540  Biso   1.000  B 
  B48      1.0000 0.45460  0.04540  0.54540  Biso   1.000  B 
  B49      1.0000 0.54540  0.54540  0.04540  Biso   1.000  B 
  B50      1.0000 0.45460  0.45460  0.04540  Biso   1.000  B 
  B51      1.0000 0.45460  0.54540  0.95460  Biso   1.000  B 
  B52      1.0000 0.54540  0.45460  0.95460  Biso   1.000  B 
  B53      1.0000 0.54540  0.54540  0.95460  Biso   1.000  B 
  B54      1.0000 0.45460  0.45460  0.95460  Biso   1.000  B 
  B55      1.0000 0.54540  0.45460  0.04540  Biso   1.000  B 
  B56      1.0000 0.45460  0.54540  0.04540  Biso   1.000  B 
  B57      1.0000 0.13260  0.00000  0.07190  Biso   1.000  B 
  B58      1.0000 0.11720  0.00000  0.11720  Biso   1.000  B 
  B59      1.0000 0.07190  0.00000  0.13260  Biso   1.000  B 
  B60      1.0000 0.15650  0.00000  0.15650  Biso   1.000  B 
  B61      1.0000 0.20580  0.00000  0.14470  Biso   1.000  B 
  B62      1.0000 0.14470  0.00000  0.20580  Biso   1.000  B 
  B63      1.0000 0.24200  0.00000  0.17950  Biso   1.000  B 
  B64      1.0000 0.21490  0.00000  0.11140  Biso   1.000  B 
  B65      1.0000 0.17950  0.00000  0.24200  Biso   1.000  B 
  B66      1.0000 0.11140  0.00000  0.21490  Biso   1.000  B 
  B67      1.0000 0.23070  0.00000  0.23070  Biso   1.000  B 
  B68      1.0000 0.26930  0.00000  0.26930  Biso   1.000  B 
  B69      1.0000 0.27510  0.00000  0.16950  Biso   1.000  B 
  B70      1.0000 0.32050  0.00000  0.25800  Biso   1.000  B 
  N1       1.0000 0.16188  0.01663  0.29337  Biso   1.000  N 
  B71      1.0000 0.25800  0.00000  0.32050  Biso   1.000  B 
  B72      1.0000 0.35530  0.00000  0.29420  Biso   1.000  B 
  N2       1.0000 0.33950  0.01804  0.20776  Biso   1.000  N 
  B73      1.0000 0.29420  0.00000  0.35530  Biso   1.000  B 
  B74      1.0000 0.22490  0.00000  0.33050  Biso   1.000  B 
  B75      1.0000 0.34350  0.00000  0.34350  Biso   1.000  B 
  B76      1.0000 0.38280  0.00000  0.38280  Biso   1.000  B 
  B77      1.0000 0.38860  0.00000  0.28510  Biso   1.000  B 
  B78      1.0000 0.28510  0.00000  0.38860  Biso   1.000  B 
  B79      1.0000 0.42810  0.00000  0.36740  Biso   1.000  B 
  B80      1.0000 0.36740  0.00000  0.42810  Biso   1.000  B 
  H1       1.0000 0.36018  0.04932  0.21698  Biso   1.000  H 
  C1       1.0000 0.37206  0.98171  0.17857  Biso   1.000  C 
  C2       1.0000 0.38518  0.00101  0.12336  Biso   1.000  C 
  C3       1.0000 0.40797  0.96077  0.09022  Biso   1.000  C 
  C4       1.0000 0.42144  0.04460  0.13432  Biso   1.000  C 
  C5       1.0000 0.34237  0.02037  0.09358  Biso   1.000  C 
  H2       1.0000 0.45621  0.02861  0.14994  Biso   1.000  H 
  H3       1.0000 0.40391  0.07358  0.15994  Biso   1.000  H 
  H4       1.0000 0.43347  0.06581  0.10170  Biso   1.000  H 
  H5       1.0000 0.43956  0.94050  0.10683  Biso   1.000  H 
  H6       1.0000 0.42552  0.97874  0.05682  Biso   1.000  H 
  H7       1.0000 0.37905  0.93456  0.07708  Biso   1.000  H 
  H8       1.0000 0.32788  0.05659  0.10586  Biso   1.000  H 
  H9       1.0000 0.31288  0.99182  0.09852  Biso   1.000  H 
  H10      1.0000 0.34998  0.02533  0.05238  Biso   1.000  H 
  H11      1.0000 0.35009  0.94641  0.17580  Biso   1.000  H 
  H12      1.0000 0.40494  0.96993  0.20011  Biso   1.000  H 
  C6       1.0000 0.13833  0.06607  0.29524  Biso   1.000  C 
  H13      1.0000 0.13949  0.98656  0.30473  Biso   1.000  H 
  H14      1.0000 0.11917  0.07521  0.26052  Biso   1.000  H 
  C7       1.0000 0.17020  0.11270  0.31475  Biso   1.000  C 
  H15      1.0000 0.10869  0.06047  0.32293  Biso   1.000  H 
  C8       1.0000 0.21541  0.12533  0.27993  Biso   1.000  C 
  C9       1.0000 0.18842  0.10239  0.36771  Biso   1.000  C 
  C10      1.0000 0.13492  0.15575  0.31565  Biso   1.000  C 
  H16      1.0000 0.23859  0.09264  0.27066  Biso   1.000  H 
  H17      1.0000 0.23912  0.15129  0.29758  Biso   1.000  H 
  H18      1.0000 0.20530  0.14560  0.24722  Biso   1.000  H 
  H19      1.0000 0.10188  0.14475  0.33468  Biso   1.000  H 
  H20      1.0000 0.12172  0.16607  0.27789  Biso   1.000  H 
  H21      1.0000 0.15308  0.18752  0.33605  Biso   1.000  H 
  H22      1.0000 0.19451  0.13801  0.38873  Biso   1.000  H 
  H23      1.0000 0.22346  0.08059  0.36712  Biso   1.000  H 
  H24      1.0000 0.16163  0.07924  0.39008  Biso   1.000  H 
  B81      1.0000 0.86740  0.00000  0.07190  Biso   1.000  B 
  B82      1.0000 0.88280  0.00000  0.11720  Biso   1.000  B 
  B83      1.0000 0.92810  0.00000  0.13260  Biso   1.000  B 
  B84      1.0000 0.84350  0.00000  0.15650  Biso   1.000  B 
  B85      1.0000 0.79420  0.00000  0.14470  Biso   1.000  B 
  B86      1.0000 0.85530  0.00000  0.20580  Biso   1.000  B 
  B87      1.0000 0.75800  0.00000  0.17950  Biso   1.000  B 
  B88      1.0000 0.78510  0.00000  0.11140  Biso   1.000  B 
  B89      1.0000 0.82050  0.00000  0.24200  Biso   1.000  B 
  B90      1.0000 0.88860  0.00000  0.21490  Biso   1.000  B 
  B91      1.0000 0.76930  0.00000  0.23070  Biso   1.000  B 
  B92      1.0000 0.73070  0.00000  0.26930  Biso   1.000  B 
  B93      1.0000 0.72490  0.00000  0.16950  Biso   1.000  B 
  B94      1.0000 0.67950  0.00000  0.25800  Biso   1.000  B 
  N3       1.0000 0.83812  0.98337  0.29337  Biso   1.000  N 
  B95      1.0000 0.74200  0.00000  0.32050  Biso   1.000  B 
  B96      1.0000 0.64470  0.00000  0.29420  Biso   1.000  B 
  N4       1.0000 0.66050  0.98196  0.20776  Biso   1.000  N 
  B97      1.0000 0.70580  0.00000  0.35530  Biso   1.000  B 
  B98      1.0000 0.77510  0.00000  0.33050  Biso   1.000  B 
  B99      1.0000 0.65650  0.00000  0.34350  Biso   1.000  B 
  B100     1.0000 0.61720  0.00000  0.38280  Biso   1.000  B 
  B101     1.0000 0.61140  0.00000  0.28510  Biso   1.000  B 
  B102     1.0000 0.71490  0.00000  0.38860  Biso   1.000  B 
  B103     1.0000 0.57190  0.00000  0.36740  Biso   1.000  B 
  B104     1.0000 0.63260  0.00000  0.42810  Biso   1.000  B 
  H25      1.0000 0.63982  0.95068  0.21698  Biso   1.000  H 
  C11      1.0000 0.62794  0.01829  0.17857  Biso   1.000  C 
  C12      1.0000 0.61482  0.99899  0.12336  Biso   1.000  C 
  C13      1.0000 0.59203  0.03923  0.09022  Biso   1.000  C 
  C14      1.0000 0.57856  0.95540  0.13432  Biso   1.000  C 
  C15      1.0000 0.65763  0.97963  0.09358  Biso   1.000  C 
  H26      1.0000 0.54379  0.97139  0.14994  Biso   1.000  H 
  H27      1.0000 0.59609  0.92642  0.15994  Biso   1.000  H 
  H28      1.0000 0.56653  0.93419  0.10170  Biso   1.000  H 
  H29      1.0000 0.56044  0.05950  0.10683  Biso   1.000  H 
  H30      1.0000 0.57448  0.02126  0.05682  Biso   1.000  H 
  H31      1.0000 0.62095  0.06544  0.07708  Biso   1.000  H 
  H32      1.0000 0.67213  0.94341  0.10586  Biso   1.000  H 
  H33      1.0000 0.68712  0.00818  0.09852  Biso   1.000  H 
  H34      1.0000 0.65001  0.97467  0.05238  Biso   1.000  H 
  H35      1.0000 0.64991  0.05359  0.17580  Biso   1.000  H 
  H36      1.0000 0.59506  0.03007  0.20011  Biso   1.000  H 
  C16      1.0000 0.86167  0.93393  0.29524  Biso   1.000  C 
  H37      1.0000 0.86051  0.01345  0.30473  Biso   1.000  H 
  H38      1.0000 0.88083  0.92479  0.26052  Biso   1.000  H 
  C17      1.0000 0.82980  0.88730  0.31475  Biso   1.000  C 
  H39      1.0000 0.89131  0.93953  0.32293  Biso   1.000  H 
  C18      1.0000 0.78459  0.87467  0.27993  Biso   1.000  C 
  C19      1.0000 0.81158  0.89761  0.36771  Biso   1.000  C 
  C20      1.0000 0.86508  0.84425  0.31565  Biso   1.000  C 
  H40      1.0000 0.76141  0.90736  0.27066  Biso   1.000  H 
  H41      1.0000 0.76088  0.84871  0.29758  Biso   1.000  H 
  H42      1.0000 0.79470  0.85440  0.24722  Biso   1.000  H 
  H43      1.0000 0.89812  0.85525  0.33468  Biso   1.000  H 
  H44      1.0000 0.87828  0.83393  0.27789  Biso   1.000  H 
  H45      1.0000 0.84692  0.81248  0.33605  Biso   1.000  H 
  H46      1.0000 0.80549  0.86199  0.38873  Biso   1.000  H 
  H47      1.0000 0.77654  0.91941  0.36712  Biso   1.000  H 
  H48      1.0000 0.83837  0.92076  0.39008  Biso   1.000  H 
  B105     1.0000 0.86740  0.00000  0.92810  Biso   1.000  B 
  B106     1.0000 0.88280  0.00000  0.88280  Biso   1.000  B 
  B107     1.0000 0.92810  0.00000  0.86740  Biso   1.000  B 
  B108     1.0000 0.84350  0.00000  0.84350  Biso   1.000  B 
  B109     1.0000 0.79420  0.00000  0.85530  Biso   1.000  B 
  B110     1.0000 0.85530  0.00000  0.79420  Biso   1.000  B 
  B111     1.0000 0.75800  0.00000  0.82050  Biso   1.000  B 
  B112     1.0000 0.78510  0.00000  0.88860  Biso   1.000  B 
  B113     1.0000 0.82050  0.00000  0.75800  Biso   1.000  B 
  B114     1.0000 0.88860  0.00000  0.78510  Biso   1.000  B 
  B115     1.0000 0.76930  0.00000  0.76930  Biso   1.000  B 
  B116     1.0000 0.73070  0.00000  0.73070  Biso   1.000  B 
  B117     1.0000 0.72490  0.00000  0.83050  Biso   1.000  B 
  B118     1.0000 0.67950  0.00000  0.74200  Biso   1.000  B 
  N5       1.0000 0.83812  0.01663  0.70663  Biso   1.000  N 
  B119     1.0000 0.74200  0.00000  0.67950  Biso   1.000  B 
  B120     1.0000 0.64470  0.00000  0.70580  Biso   1.000  B 
  N6       1.0000 0.66050  0.01804  0.79224  Biso   1.000  N 
  B121     1.0000 0.70580  0.00000  0.64470  Biso   1.000  B 
  B122     1.0000 0.77510  0.00000  0.66950  Biso   1.000  B 
  B123     1.0000 0.65650  0.00000  0.65650  Biso   1.000  B 
  B124     1.0000 0.61720  0.00000  0.61720  Biso   1.000  B 
  B125     1.0000 0.61140  0.00000  0.71490  Biso   1.000  B 
  B126     1.0000 0.71490  0.00000  0.61140  Biso   1.000  B 
  B127     1.0000 0.57190  0.00000  0.63260  Biso   1.000  B 
  B128     1.0000 0.63260  0.00000  0.57190  Biso   1.000  B 
  H49      1.0000 0.63982  0.04932  0.78302  Biso   1.000  H 
  C21      1.0000 0.62794  0.98171  0.82143  Biso   1.000  C 
  C22      1.0000 0.61482  0.00101  0.87664  Biso   1.000  C 
  C23      1.0000 0.59203  0.96077  0.90978  Biso   1.000  C 
  C24      1.0000 0.57856  0.04460  0.86569  Biso   1.000  C 
  C25      1.0000 0.65763  0.02037  0.90642  Biso   1.000  C 
  H50      1.0000 0.54379  0.02861  0.85006  Biso   1.000  H 
  H51      1.0000 0.59609  0.07358  0.84006  Biso   1.000  H 
  H52      1.0000 0.56654  0.06581  0.89830  Biso   1.000  H 
  H53      1.0000 0.56044  0.94050  0.89317  Biso   1.000  H 
  H54      1.0000 0.57448  0.97874  0.94318  Biso   1.000  H 
  H55      1.0000 0.62095  0.93456  0.92292  Biso   1.000  H 
  H56      1.0000 0.67213  0.05659  0.89414  Biso   1.000  H 
  H57      1.0000 0.68712  0.99182  0.90148  Biso   1.000  H 
  H58      1.0000 0.65001  0.02533  0.94762  Biso   1.000  H 
  H59      1.0000 0.64991  0.94641  0.82420  Biso   1.000  H 
  H60      1.0000 0.59506  0.96993  0.79988  Biso   1.000  H 
  C26      1.0000 0.86167  0.06607  0.70476  Biso   1.000  C 
  H61      1.0000 0.86051  0.98656  0.69527  Biso   1.000  H 
  H62      1.0000 0.88083  0.07521  0.73948  Biso   1.000  H 
  C27      1.0000 0.82980  0.11270  0.68525  Biso   1.000  C 
  H63      1.0000 0.89131  0.06047  0.67707  Biso   1.000  H 
  C28      1.0000 0.78459  0.12533  0.72007  Biso   1.000  C 
  C29      1.0000 0.81158  0.10239  0.63229  Biso   1.000  C 
  C30      1.0000 0.86508  0.15575  0.68435  Biso   1.000  C 
  H64      1.0000 0.76141  0.09264  0.72934  Biso   1.000  H 
  H65      1.0000 0.76088  0.15129  0.70242  Biso   1.000  H 
  H66      1.0000 0.79470  0.14560  0.75278  Biso   1.000  H 
  H67      1.0000 0.89812  0.14475  0.66531  Biso   1.000  H 
  H68      1.0000 0.87828  0.16607  0.72211  Biso   1.000  H 
  H69      1.0000 0.84692  0.18752  0.66395  Biso   1.000  H 
  H70      1.0000 0.80549  0.13801  0.61127  Biso   1.000  H 
  H71      1.0000 0.77654  0.08059  0.63287  Biso   1.000  H 
  H72      1.0000 0.83837  0.07924  0.60992  Biso   1.000  H 
  B129     1.0000 0.13260  0.00000  0.92810  Biso   1.000  B 
  B130     1.0000 0.11720  0.00000  0.88280  Biso   1.000  B 
  B131     1.0000 0.07190  0.00000  0.86740  Biso   1.000  B 
  B132     1.0000 0.15650  0.00000  0.84350  Biso   1.000  B 
  B133     1.0000 0.20580  0.00000  0.85530  Biso   1.000  B 
  B134     1.0000 0.14470  0.00000  0.79420  Biso   1.000  B 
  B135     1.0000 0.24200  0.00000  0.82050  Biso   1.000  B 
  B136     1.0000 0.21490  0.00000  0.88860  Biso   1.000  B 
  B137     1.0000 0.17950  0.00000  0.75800  Biso   1.000  B 
  B138     1.0000 0.11140  0.00000  0.78510  Biso   1.000  B 
  B139     1.0000 0.23070  0.00000  0.76930  Biso   1.000  B 
  B140     1.0000 0.26930  0.00000  0.73070  Biso   1.000  B 
  B141     1.0000 0.27510  0.00000  0.83050  Biso   1.000  B 
  B142     1.0000 0.32050  0.00000  0.74200  Biso   1.000  B 
  N7       1.0000 0.16188  0.98337  0.70663  Biso   1.000  N 
  B143     1.0000 0.25800  0.00000  0.67950  Biso   1.000  B 
  B144     1.0000 0.35530  0.00000  0.70580  Biso   1.000  B 
  N8       1.0000 0.33950  0.98196  0.79224  Biso   1.000  N 
  B145     1.0000 0.29420  0.00000  0.64470  Biso   1.000  B 
  B146     1.0000 0.22490  0.00000  0.66950  Biso   1.000  B 
  B147     1.0000 0.34350  0.00000  0.65650  Biso   1.000  B 
  B148     1.0000 0.38280  0.00000  0.61720  Biso   1.000  B 
  B149     1.0000 0.38860  0.00000  0.71490  Biso   1.000  B 
  B150     1.0000 0.28510  0.00000  0.61140  Biso   1.000  B 
  B151     1.0000 0.42810  0.00000  0.63260  Biso   1.000  B 
  B152     1.0000 0.36740  0.00000  0.57190  Biso   1.000  B 
  H73      1.0000 0.36018  0.95068  0.78302  Biso   1.000  H 
  C31      1.0000 0.37206  0.01829  0.82143  Biso   1.000  C 
  C32      1.0000 0.38518  0.99899  0.87664  Biso   1.000  C 
  C33      1.0000 0.40797  0.03923  0.90978  Biso   1.000  C 
  C34      1.0000 0.42144  0.95540  0.86569  Biso   1.000  C 
  C35      1.0000 0.34237  0.97963  0.90642  Biso   1.000  C 
  H74      1.0000 0.45621  0.97139  0.85006  Biso   1.000  H 
  H75      1.0000 0.40391  0.92642  0.84006  Biso   1.000  H 
  H76      1.0000 0.43346  0.93419  0.89830  Biso   1.000  H 
  H77      1.0000 0.43956  0.05950  0.89317  Biso   1.000  H 
  H78      1.0000 0.42552  0.02126  0.94318  Biso   1.000  H 
  H79      1.0000 0.37905  0.06544  0.92292  Biso   1.000  H 
  H80      1.0000 0.32788  0.94341  0.89414  Biso   1.000  H 
  H81      1.0000 0.31288  0.00818  0.90148  Biso   1.000  H 
  H82      1.0000 0.34998  0.97467  0.94762  Biso   1.000  H 
  H83      1.0000 0.35009  0.05359  0.82420  Biso   1.000  H 
  H84      1.0000 0.40494  0.03007  0.79988  Biso   1.000  H 
  C36      1.0000 0.13833  0.93393  0.70476  Biso   1.000  C 
  H85      1.0000 0.13949  0.01345  0.69527  Biso   1.000  H 
  H86      1.0000 0.11917  0.92479  0.73948  Biso   1.000  H 
  C37      1.0000 0.17020  0.88730  0.68525  Biso   1.000  C 
  H87      1.0000 0.10869  0.93953  0.67707  Biso   1.000  H 
  C38      1.0000 0.21541  0.87467  0.72007  Biso   1.000  C 
  C39      1.0000 0.18842  0.89761  0.63229  Biso   1.000  C 
  C40      1.0000 0.13492  0.84425  0.68435  Biso   1.000  C 
  H88      1.0000 0.23859  0.90736  0.72934  Biso   1.000  H 
  H89      1.0000 0.23912  0.84871  0.70242  Biso   1.000  H 
  H90      1.0000 0.20530  0.85440  0.75278  Biso   1.000  H 
  H91      1.0000 0.10188  0.85525  0.66531  Biso   1.000  H 
  H92      1.0000 0.12172  0.83393  0.72211  Biso   1.000  H 
  H93      1.0000 0.15308  0.81248  0.66395  Biso   1.000  H 
  H94      1.0000 0.19451  0.86199  0.61127  Biso   1.000  H 
  H95      1.0000 0.22346  0.91941  0.63287  Biso   1.000  H 
  H96      1.0000 0.16163  0.92076  0.60992  Biso   1.000  H 
  B153     1.0000 0.07190  0.13260  0.00000  Biso   1.000  B 
  B154     1.0000 0.11720  0.11720  0.00000  Biso   1.000  B 
  B155     1.0000 0.13260  0.07190  0.00000  Biso   1.000  B 
  B156     1.0000 0.15650  0.15650  0.00000  Biso   1.000  B 
  B157     1.0000 0.14470  0.20580  0.00000  Biso   1.000  B 
  B158     1.0000 0.20580  0.14470  0.00000  Biso   1.000  B 
  B159     1.0000 0.17950  0.24200  0.00000  Biso   1.000  B 
  B160     1.0000 0.11140  0.21490  0.00000  Biso   1.000  B 
  B161     1.0000 0.24200  0.17950  0.00000  Biso   1.000  B 
  B162     1.0000 0.21490  0.11140  0.00000  Biso   1.000  B 
  B163     1.0000 0.23070  0.23070  0.00000  Biso   1.000  B 
  B164     1.0000 0.26930  0.26930  0.00000  Biso   1.000  B 
  B165     1.0000 0.16950  0.27510  0.00000  Biso   1.000  B 
  B166     1.0000 0.25800  0.32050  0.00000  Biso   1.000  B 
  N9       1.0000 0.28762  0.16302  0.02916  Biso   1.000  N 
  B167     1.0000 0.32050  0.25800  0.00000  Biso   1.000  B 
  B168     1.0000 0.29420  0.35530  0.00000  Biso   1.000  B 
  N10      1.0000 0.20540  0.34002  0.00342  Biso   1.000  N 
  B169     1.0000 0.35530  0.29420  0.00000  Biso   1.000  B 
  B170     1.0000 0.33050  0.22490  0.00000  Biso   1.000  B 
  B171     1.0000 0.34350  0.34350  0.00000  Biso   1.000  B 
  B172     1.0000 0.38280  0.38280  0.00000  Biso   1.000  B 
  B173     1.0000 0.28510  0.38860  0.00000  Biso   1.000  B 
  B174     1.0000 0.38860  0.28510  0.00000  Biso   1.000  B 
  B175     1.0000 0.36740  0.42810  0.00000  Biso   1.000  B 
  B176     1.0000 0.42810  0.36740  0.00000  Biso   1.000  B 
  H97      1.0000 0.20061  0.35828  0.03743  Biso   1.000  H 
  C41      1.0000 0.18962  0.37235  0.96097  Biso   1.000  C 
  C42      1.0000 0.16814  0.34661  0.91391  Biso   1.000  C 
  C43      1.0000 0.11720  0.31994  0.92530  Biso   1.000  C 
  C44      1.0000 0.20768  0.31436  0.88755  Biso   1.000  C 
  C45      1.0000 0.15610  0.38884  0.87582  Biso   1.000  C 
  H98      1.0000 0.21467  0.28110  0.91025  Biso   1.000  H 
  H99      1.0000 0.24374  0.33362  0.88248  Biso   1.000  H 
  H100     1.0000 0.19387  0.30021  0.85126  Biso   1.000  H 
  H101     1.0000 0.12061  0.28494  0.94404  Biso   1.000  H 
  H102     1.0000 0.09707  0.31010  0.89162  Biso   1.000  H 
  H103     1.0000 0.09371  0.34681  0.94760  Biso   1.000  H 
  H104     1.0000 0.11973  0.40489  0.88435  Biso   1.000  H 
  H105     1.0000 0.15182  0.37495  0.83735  Biso   1.000  H 
  H106     1.0000 0.18661  0.41695  0.87341  Biso   1.000  H 
  H107     1.0000 0.22042  0.39703  0.94859  Biso   1.000  H 
  H108     1.0000 0.16258  0.40107  0.97503  Biso   1.000  H 
  C46      1.0000 0.27452  0.15735  0.08361  Biso   1.000  C 
  H109     1.0000 0.30247  0.13014  0.01425  Biso   1.000  H 
  H110     1.0000 0.23804  0.17449  0.09672  Biso   1.000  H 
  C47      1.0000 0.31684  0.17740  0.11728  Biso   1.000  C 
  H111     1.0000 0.26838  0.11664  0.09048  Biso   1.000  H 
  C48      1.0000 0.31450  0.23409  0.12315  Biso   1.000  C 
  C49      1.0000 0.36518  0.15912  0.09381  Biso   1.000  C 
  C50      1.0000 0.31629  0.15214  0.16925  Biso   1.000  C 
  H112     1.0000 0.32968  0.25495  0.09149  Biso   1.000  H 
  H113     1.0000 0.33517  0.24714  0.15615  Biso   1.000  H 
  H114     1.0000 0.27580  0.24536  0.12515  Biso   1.000  H 
  H115     1.0000 0.32450  0.11102  0.16616  Biso   1.000  H 
  H116     1.0000 0.27971  0.15273  0.18530  Biso   1.000  H 
  H117     1.0000 0.34079  0.17194  0.19704  Biso   1.000  H 
  H118     1.0000 0.37482  0.18244  0.06157  Biso   1.000  H 
  H119     1.0000 0.36748  0.12138  0.08224  Biso   1.000  H 
  H120     1.0000 0.39587  0.16429  0.12060  Biso   1.000  H 
  B177     1.0000 0.07190  0.86740  0.00000  Biso   1.000  B 
  B178     1.0000 0.11720  0.88280  0.00000  Biso   1.000  B 
  B179     1.0000 0.13260  0.92810  0.00000  Biso   1.000  B 
  B180     1.0000 0.15650  0.84350  0.00000  Biso   1.000  B 
  B181     1.0000 0.14470  0.79420  0.00000  Biso   1.000  B 
  B182     1.0000 0.20580  0.85530  0.00000  Biso   1.000  B 
  B183     1.0000 0.17950  0.75800  0.00000  Biso   1.000  B 
  B184     1.0000 0.11140  0.78510  0.00000  Biso   1.000  B 
  B185     1.0000 0.24200  0.82050  0.00000  Biso   1.000  B 
  B186     1.0000 0.21490  0.88860  0.00000  Biso   1.000  B 
  B187     1.0000 0.23070  0.76930  0.00000  Biso   1.000  B 
  B188     1.0000 0.26930  0.73070  0.00000  Biso   1.000  B 
  B189     1.0000 0.16950  0.72490  0.00000  Biso   1.000  B 
  B190     1.0000 0.25800  0.67950  0.00000  Biso   1.000  B 
  N11      1.0000 0.28762  0.83698  0.97084  Biso   1.000  N 
  B191     1.0000 0.32050  0.74200  0.00000  Biso   1.000  B 
  B192     1.0000 0.29420  0.64470  0.00000  Biso   1.000  B 
  N12      1.0000 0.20540  0.65998  0.99658  Biso   1.000  N 
  B193     1.0000 0.35530  0.70580  0.00000  Biso   1.000  B 
  B194     1.0000 0.33050  0.77510  0.00000  Biso   1.000  B 
  B195     1.0000 0.34350  0.65650  0.00000  Biso   1.000  B 
  B196     1.0000 0.38280  0.61720  0.00000  Biso   1.000  B 
  B197     1.0000 0.28510  0.61140  0.00000  Biso   1.000  B 
  B198     1.0000 0.38860  0.71490  0.00000  Biso   1.000  B 
  B199     1.0000 0.36740  0.57190  0.00000  Biso   1.000  B 
  B200     1.0000 0.42810  0.63260  0.00000  Biso   1.000  B 
  H121     1.0000 0.20061  0.64172  0.96257  Biso   1.000  H 
  C51      1.0000 0.18962  0.62765  0.03903  Biso   1.000  C 
  C52      1.0000 0.16814  0.65339  0.08609  Biso   1.000  C 
  C53      1.0000 0.11720  0.68006  0.07469  Biso   1.000  C 
  C54      1.0000 0.20768  0.68564  0.11245  Biso   1.000  C 
  C55      1.0000 0.15610  0.61116  0.12418  Biso   1.000  C 
  H122     1.0000 0.21467  0.71890  0.08975  Biso   1.000  H 
  H123     1.0000 0.24374  0.66638  0.11752  Biso   1.000  H 
  H124     1.0000 0.19387  0.69979  0.14874  Biso   1.000  H 
  H125     1.0000 0.12061  0.71506  0.05596  Biso   1.000  H 
  H126     1.0000 0.09707  0.68989  0.10838  Biso   1.000  H 
  H127     1.0000 0.09371  0.65319  0.05240  Biso   1.000  H 
  H128     1.0000 0.11973  0.59511  0.11565  Biso   1.000  H 
  H129     1.0000 0.15182  0.62505  0.16265  Biso   1.000  H 
  H130     1.0000 0.18661  0.58305  0.12659  Biso   1.000  H 
  H131     1.0000 0.22042  0.60297  0.05141  Biso   1.000  H 
  H132     1.0000 0.16258  0.59893  0.02497  Biso   1.000  H 
  C56      1.0000 0.27452  0.84265  0.91639  Biso   1.000  C 
  H133     1.0000 0.30247  0.86986  0.98575  Biso   1.000  H 
  H134     1.0000 0.23804  0.82551  0.90328  Biso   1.000  H 
  C57      1.0000 0.31684  0.82260  0.88272  Biso   1.000  C 
  H135     1.0000 0.26838  0.88336  0.90952  Biso   1.000  H 
  C58      1.0000 0.31450  0.76591  0.87685  Biso   1.000  C 
  C59      1.0000 0.36518  0.84088  0.90619  Biso   1.000  C 
  C60      1.0000 0.31629  0.84786  0.83074  Biso   1.000  C 
  H136     1.0000 0.32968  0.74505  0.90851  Biso   1.000  H 
  H137     1.0000 0.33517  0.75286  0.84385  Biso   1.000  H 
  H138     1.0000 0.27580  0.75464  0.87485  Biso   1.000  H 
  H139     1.0000 0.32450  0.88898  0.83384  Biso   1.000  H 
  H140     1.0000 0.27971  0.84727  0.81470  Biso   1.000  H 
  H141     1.0000 0.34079  0.82806  0.80296  Biso   1.000  H 
  H142     1.0000 0.37483  0.81755  0.93843  Biso   1.000  H 
  H143     1.0000 0.36748  0.87862  0.91776  Biso   1.000  H 
  H144     1.0000 0.39587  0.83571  0.87940  Biso   1.000  H 
  B201     1.0000 0.92810  0.86740  0.00000  Biso   1.000  B 
  B202     1.0000 0.88280  0.88280  0.00000  Biso   1.000  B 
  B203     1.0000 0.86740  0.92810  0.00000  Biso   1.000  B 
  B204     1.0000 0.84350  0.84350  0.00000  Biso   1.000  B 
  B205     1.0000 0.85530  0.79420  0.00000  Biso   1.000  B 
  B206     1.0000 0.79420  0.85530  0.00000  Biso   1.000  B 
  B207     1.0000 0.82050  0.75800  0.00000  Biso   1.000  B 
  B208     1.0000 0.88860  0.78510  0.00000  Biso   1.000  B 
  B209     1.0000 0.75800  0.82050  0.00000  Biso   1.000  B 
  B210     1.0000 0.78510  0.88860  0.00000  Biso   1.000  B 
  B211     1.0000 0.76930  0.76930  0.00000  Biso   1.000  B 
  B212     1.0000 0.73070  0.73070  0.00000  Biso   1.000  B 
  B213     1.0000 0.83050  0.72490  0.00000  Biso   1.000  B 
  B214     1.0000 0.74200  0.67950  0.00000  Biso   1.000  B 
  N13      1.0000 0.71237  0.83698  0.02916  Biso   1.000  N 
  B215     1.0000 0.67950  0.74200  0.00000  Biso   1.000  B 
  B216     1.0000 0.70580  0.64470  0.00000  Biso   1.000  B 
  N14      1.0000 0.79459  0.65998  0.00342  Biso   1.000  N 
  B217     1.0000 0.64470  0.70580  0.00000  Biso   1.000  B 
  B218     1.0000 0.66950  0.77510  0.00000  Biso   1.000  B 
  B219     1.0000 0.65650  0.65650  0.00000  Biso   1.000  B 
  B220     1.0000 0.61720  0.61720  0.00000  Biso   1.000  B 
  B221     1.0000 0.71490  0.61140  0.00000  Biso   1.000  B 
  B222     1.0000 0.61140  0.71490  0.00000  Biso   1.000  B 
  B223     1.0000 0.63260  0.57190  0.00000  Biso   1.000  B 
  B224     1.0000 0.57190  0.63260  0.00000  Biso   1.000  B 
  H145     1.0000 0.79939  0.64172  0.03743  Biso   1.000  H 
  C61      1.0000 0.81038  0.62765  0.96097  Biso   1.000  C 
  C62      1.0000 0.83186  0.65339  0.91391  Biso   1.000  C 
  C63      1.0000 0.88280  0.68006  0.92530  Biso   1.000  C 
  C64      1.0000 0.79232  0.68564  0.88755  Biso   1.000  C 
  C65      1.0000 0.84390  0.61116  0.87582  Biso   1.000  C 
  H146     1.0000 0.78533  0.71890  0.91025  Biso   1.000  H 
  H147     1.0000 0.75626  0.66638  0.88248  Biso   1.000  H 
  H148     1.0000 0.80613  0.69979  0.85126  Biso   1.000  H 
  H149     1.0000 0.87939  0.71506  0.94404  Biso   1.000  H 
  H150     1.0000 0.90293  0.68989  0.89162  Biso   1.000  H 
  H151     1.0000 0.90629  0.65319  0.94760  Biso   1.000  H 
  H152     1.0000 0.88026  0.59511  0.88435  Biso   1.000  H 
  H153     1.0000 0.84818  0.62505  0.83735  Biso   1.000  H 
  H154     1.0000 0.81339  0.58305  0.87341  Biso   1.000  H 
  H155     1.0000 0.77958  0.60297  0.94859  Biso   1.000  H 
  H156     1.0000 0.83741  0.59893  0.97503  Biso   1.000  H 
  C66      1.0000 0.72548  0.84265  0.08361  Biso   1.000  C 
  H157     1.0000 0.69753  0.86986  0.01425  Biso   1.000  H 
  H158     1.0000 0.76196  0.82551  0.09672  Biso   1.000  H 
  C67      1.0000 0.68316  0.82260  0.11728  Biso   1.000  C 
  H159     1.0000 0.73162  0.88336  0.09048  Biso   1.000  H 
  C68      1.0000 0.68550  0.76591  0.12315  Biso   1.000  C 
  C69      1.0000 0.63482  0.84088  0.09381  Biso   1.000  C 
  C70      1.0000 0.68371  0.84786  0.16925  Biso   1.000  C 
  H160     1.0000 0.67032  0.74505  0.09149  Biso   1.000  H 
  H161     1.0000 0.66483  0.75286  0.15615  Biso   1.000  H 
  H162     1.0000 0.72420  0.75464  0.12515  Biso   1.000  H 
  H163     1.0000 0.67550  0.88898  0.16616  Biso   1.000  H 
  H164     1.0000 0.72029  0.84727  0.18530  Biso   1.000  H 
  H165     1.0000 0.65921  0.82806  0.19704  Biso   1.000  H 
  H166     1.0000 0.62518  0.81756  0.06157  Biso   1.000  H 
  H167     1.0000 0.63252  0.87862  0.08224  Biso   1.000  H 
  H168     1.0000 0.60413  0.83571  0.12060  Biso   1.000  H 
  B225     1.0000 0.92810  0.13260  0.00000  Biso   1.000  B 
  B226     1.0000 0.88280  0.11720  0.00000  Biso   1.000  B 
  B227     1.0000 0.86740  0.07190  0.00000  Biso   1.000  B 
  B228     1.0000 0.84350  0.15650  0.00000  Biso   1.000  B 
  B229     1.0000 0.85530  0.20580  0.00000  Biso   1.000  B 
  B230     1.0000 0.79420  0.14470  0.00000  Biso   1.000  B 
  B231     1.0000 0.82050  0.24200  0.00000  Biso   1.000  B 
  B232     1.0000 0.88860  0.21490  0.00000  Biso   1.000  B 
  B233     1.0000 0.75800  0.17950  0.00000  Biso   1.000  B 
  B234     1.0000 0.78510  0.11140  0.00000  Biso   1.000  B 
  B235     1.0000 0.76930  0.23070  0.00000  Biso   1.000  B 
  B236     1.0000 0.73070  0.26930  0.00000  Biso   1.000  B 
  B237     1.0000 0.83050  0.27510  0.00000  Biso   1.000  B 
  B238     1.0000 0.74200  0.32050  0.00000  Biso   1.000  B 
  N15      1.0000 0.71237  0.16302  0.97084  Biso   1.000  N 
  B239     1.0000 0.67950  0.25800  0.00000  Biso   1.000  B 
  B240     1.0000 0.70580  0.35530  0.00000  Biso   1.000  B 
  N16      1.0000 0.79459  0.34002  0.99658  Biso   1.000  N 
  B241     1.0000 0.64470  0.29420  0.00000  Biso   1.000  B 
  B242     1.0000 0.66950  0.22490  0.00000  Biso   1.000  B 
  B243     1.0000 0.65650  0.34350  0.00000  Biso   1.000  B 
  B244     1.0000 0.61720  0.38280  0.00000  Biso   1.000  B 
  B245     1.0000 0.71490  0.38860  0.00000  Biso   1.000  B 
  B246     1.0000 0.61140  0.28510  0.00000  Biso   1.000  B 
  B247     1.0000 0.63260  0.42810  0.00000  Biso   1.000  B 
  B248     1.0000 0.57190  0.36740  0.00000  Biso   1.000  B 
  H169     1.0000 0.79939  0.35828  0.96257  Biso   1.000  H 
  C71      1.0000 0.81038  0.37235  0.03903  Biso   1.000  C 
  C72      1.0000 0.83186  0.34661  0.08609  Biso   1.000  C 
  C73      1.0000 0.88280  0.31994  0.07469  Biso   1.000  C 
  C74      1.0000 0.79232  0.31436  0.11245  Biso   1.000  C 
  C75      1.0000 0.84390  0.38884  0.12418  Biso   1.000  C 
  H170     1.0000 0.78533  0.28110  0.08975  Biso   1.000  H 
  H171     1.0000 0.75626  0.33362  0.11752  Biso   1.000  H 
  H172     1.0000 0.80613  0.30021  0.14874  Biso   1.000  H 
  H173     1.0000 0.87939  0.28494  0.05596  Biso   1.000  H 
  H174     1.0000 0.90293  0.31010  0.10838  Biso   1.000  H 
  H175     1.0000 0.90629  0.34682  0.05240  Biso   1.000  H 
  H176     1.0000 0.88026  0.40489  0.11565  Biso   1.000  H 
  H177     1.0000 0.84818  0.37495  0.16265  Biso   1.000  H 
  H178     1.0000 0.81339  0.41695  0.12659  Biso   1.000  H 
  H179     1.0000 0.77958  0.39703  0.05141  Biso   1.000  H 
  H180     1.0000 0.83741  0.40107  0.02497  Biso   1.000  H 
  C76      1.0000 0.72548  0.15735  0.91639  Biso   1.000  C 
  H181     1.0000 0.69753  0.13014  0.98575  Biso   1.000  H 
  H182     1.0000 0.76196  0.17449  0.90328  Biso   1.000  H 
  C77      1.0000 0.68316  0.17740  0.88272  Biso   1.000  C 
  H183     1.0000 0.73162  0.11664  0.90952  Biso   1.000  H 
  C78      1.0000 0.68550  0.23409  0.87685  Biso   1.000  C 
  C79      1.0000 0.63482  0.15912  0.90619  Biso   1.000  C 
  C80      1.0000 0.68371  0.15214  0.83074  Biso   1.000  C 
  H184     1.0000 0.67032  0.25495  0.90851  Biso   1.000  H 
  H185     1.0000 0.66483  0.24714  0.84385  Biso   1.000  H 
  H186     1.0000 0.72420  0.24536  0.87485  Biso   1.000  H 
  H187     1.0000 0.67550  0.11102  0.83384  Biso   1.000  H 
  H188     1.0000 0.72029  0.15273  0.81470  Biso   1.000  H 
  H189     1.0000 0.65921  0.17194  0.80296  Biso   1.000  H 
  H190     1.0000 0.62517  0.18245  0.93843  Biso   1.000  H 
  H191     1.0000 0.63252  0.12138  0.91776  Biso   1.000  H 
  H192     1.0000 0.60413  0.16429  0.87940  Biso   1.000  H 
  B249     1.0000 0.00000  0.07190  0.13260  Biso   1.000  B 
  B250     1.0000 0.00000  0.11720  0.11720  Biso   1.000  B 
  B251     1.0000 0.00000  0.13260  0.07190  Biso   1.000  B 
  B252     1.0000 0.00000  0.15650  0.15650  Biso   1.000  B 
  B253     1.0000 0.00000  0.14470  0.20580  Biso   1.000  B 
  B254     1.0000 0.00000  0.20580  0.14470  Biso   1.000  B 
  B255     1.0000 0.00000  0.17950  0.24200  Biso   1.000  B 
  B256     1.0000 0.00000  0.11140  0.21490  Biso   1.000  B 
  B257     1.0000 0.00000  0.24200  0.17950  Biso   1.000  B 
  B258     1.0000 0.00000  0.21490  0.11140  Biso   1.000  B 
  B259     1.0000 0.00000  0.23070  0.23070  Biso   1.000  B 
  B260     1.0000 0.00000  0.26930  0.26930  Biso   1.000  B 
  B261     1.0000 0.00000  0.16950  0.27510  Biso   1.000  B 
  B262     1.0000 0.00000  0.25800  0.32050  Biso   1.000  B 
  N17      1.0000 0.01842  0.29287  0.16217  Biso   1.000  N 
  B263     1.0000 0.00000  0.32050  0.25800  Biso   1.000  B 
  B264     1.0000 0.00000  0.29420  0.35530  Biso   1.000  B 
  N18      1.0000 0.02680  0.21090  0.33833  Biso   1.000  N 
  B265     1.0000 0.00000  0.35530  0.29420  Biso   1.000  B 
  B266     1.0000 0.00000  0.33050  0.22490  Biso   1.000  B 
  B267     1.0000 0.00000  0.34350  0.34350  Biso   1.000  B 
  B268     1.0000 0.00000  0.38280  0.38280  Biso   1.000  B 
  B269     1.0000 0.00000  0.28510  0.38860  Biso   1.000  B 
  B270     1.0000 0.00000  0.38860  0.28510  Biso   1.000  B 
  B271     1.0000 0.00000  0.36740  0.42810  Biso   1.000  B 
  B272     1.0000 0.00000  0.42810  0.36740  Biso   1.000  B 
  H193     1.0000 0.06058  0.22040  0.35537  Biso   1.000  H 
  C81      1.0000 0.99754  0.18372  0.37597  Biso   1.000  C 
  C82      1.0000 0.01772  0.13175  0.39532  Biso   1.000  C 
  C83      1.0000 0.98136  0.11459  0.43615  Biso   1.000  C 
  C84      1.0000 0.07055  0.13494  0.42047  Biso   1.000  C 
  C85      1.0000 0.01383  0.09188  0.35226  Biso   1.000  C 
  H194     1.0000 0.09235  0.10021  0.41147  Biso   1.000  H 
  H195     1.0000 0.06827  0.13512  0.46240  Biso   1.000  H 
  H196     1.0000 0.09269  0.16992  0.41112  Biso   1.000  H 
  H197     1.0000 0.97554  0.14130  0.46770  Biso   1.000  H 
  H198     1.0000 0.99543  0.07699  0.45055  Biso   1.000  H 
  H199     1.0000 0.94559  0.10826  0.41638  Biso   1.000  H 
  H200     1.0000 0.04371  0.09831  0.32282  Biso   1.000  H 
  H201     1.0000 0.97834  0.09570  0.33175  Biso   1.000  H 
  H202     1.0000 0.01384  0.05422  0.36662  Biso   1.000  H 
  H203     1.0000 0.95925  0.17604  0.36052  Biso   1.000  H 
  H204     1.0000 0.99610  0.20560  0.41111  Biso   1.000  H 
  C86      1.0000 0.06755  0.29624  0.13825  Biso   1.000  C 
  H205     1.0000 0.99176  0.31024  0.13933  Biso   1.000  H 
  H206     1.0000 0.06480  0.27953  0.09948  Biso   1.000  H 
  C87      1.0000 0.11405  0.27700  0.16894  Biso   1.000  C 
  H207     1.0000 0.07502  0.33684  0.12889  Biso   1.000  H 
  C88      1.0000 0.11433  0.21968  0.16973  Biso   1.000  C 
  C89      1.0000 0.12099  0.29510  0.22402  Biso   1.000  C 
  C90      1.0000 0.16004  0.29470  0.14222  Biso   1.000  C 
  H208     1.0000 0.09270  0.20701  0.20199  Biso   1.000  H 
  H209     1.0000 0.15209  0.20356  0.17805  Biso   1.000  H 
  H210     1.0000 0.09986  0.20458  0.13279  Biso   1.000  H 
  H211     1.0000 0.19360  0.27838  0.15971  Biso   1.000  H 
  H212     1.0000 0.16100  0.33553  0.14329  Biso   1.000  H 
  H213     1.0000 0.16010  0.28426  0.10273  Biso   1.000  H 
  H214     1.0000 0.15542  0.31827  0.22893  Biso   1.000  H 
  H215     1.0000 0.12650  0.26401  0.25092  Biso   1.000  H 
  H216     1.0000 0.09115  0.31733  0.23998  Biso   1.000  H 
  B273     1.0000 0.00000  0.07190  0.86740  Biso   1.000  B 
  B274     1.0000 0.00000  0.11720  0.88280  Biso   1.000  B 
  B275     1.0000 0.00000  0.13260  0.92810  Biso   1.000  B 
  B276     1.0000 0.00000  0.15650  0.84350  Biso   1.000  B 
  B277     1.0000 0.00000  0.14470  0.79420  Biso   1.000  B 
  B278     1.0000 0.00000  0.20580  0.85530  Biso   1.000  B 
  B279     1.0000 0.00000  0.17950  0.75800  Biso   1.000  B 
  B280     1.0000 0.00000  0.11140  0.78510  Biso   1.000  B 
  B281     1.0000 0.00000  0.24200  0.82050  Biso   1.000  B 
  B282     1.0000 0.00000  0.21490  0.88860  Biso   1.000  B 
  B283     1.0000 0.00000  0.23070  0.76930  Biso   1.000  B 
  B284     1.0000 0.00000  0.26930  0.73070  Biso   1.000  B 
  B285     1.0000 0.00000  0.16950  0.72490  Biso   1.000  B 
  B286     1.0000 0.00000  0.25800  0.67950  Biso   1.000  B 
  N19      1.0000 0.98158  0.29287  0.83783  Biso   1.000  N 
  B287     1.0000 0.00000  0.32050  0.74200  Biso   1.000  B 
  B288     1.0000 0.00000  0.29420  0.64470  Biso   1.000  B 
  N20      1.0000 0.97320  0.21090  0.66167  Biso   1.000  N 
  B289     1.0000 0.00000  0.35530  0.70580  Biso   1.000  B 
  B290     1.0000 0.00000  0.33050  0.77510  Biso   1.000  B 
  B291     1.0000 0.00000  0.34350  0.65650  Biso   1.000  B 
  B292     1.0000 0.00000  0.38280  0.61720  Biso   1.000  B 
  B293     1.0000 0.00000  0.28510  0.61140  Biso   1.000  B 
  B294     1.0000 0.00000  0.38860  0.71490  Biso   1.000  B 
  B295     1.0000 0.00000  0.36740  0.57190  Biso   1.000  B 
  B296     1.0000 0.00000  0.42810  0.63260  Biso   1.000  B 
  H217     1.0000 0.93943  0.22040  0.64463  Biso   1.000  H 
  C91      1.0000 0.00246  0.18372  0.62403  Biso   1.000  C 
  C92      1.0000 0.98228  0.13175  0.60468  Biso   1.000  C 
  C93      1.0000 0.01864  0.11459  0.56385  Biso   1.000  C 
  C94      1.0000 0.92945  0.13494  0.57953  Biso   1.000  C 
  C95      1.0000 0.98617  0.09188  0.64774  Biso   1.000  C 
  H218     1.0000 0.90765  0.10021  0.58853  Biso   1.000  H 
  H219     1.0000 0.93173  0.13512  0.53760  Biso   1.000  H 
  H220     1.0000 0.90731  0.16992  0.58888  Biso   1.000  H 
  H221     1.0000 0.02446  0.14130  0.53230  Biso   1.000  H 
  H222     1.0000 0.00457  0.07699  0.54945  Biso   1.000  H 
  H223     1.0000 0.05440  0.10826  0.58362  Biso   1.000  H 
  H224     1.0000 0.95629  0.09831  0.67719  Biso   1.000  H 
  H225     1.0000 0.02166  0.09570  0.66825  Biso   1.000  H 
  H226     1.0000 0.98617  0.05422  0.63338  Biso   1.000  H 
  H227     1.0000 0.04075  0.17604  0.63948  Biso   1.000  H 
  H228     1.0000 0.00390  0.20560  0.58889  Biso   1.000  H 
  C96      1.0000 0.93245  0.29624  0.86175  Biso   1.000  C 
  H229     1.0000 0.00823  0.31024  0.86067  Biso   1.000  H 
  H230     1.0000 0.93520  0.27953  0.90052  Biso   1.000  H 
  C97      1.0000 0.88595  0.27700  0.83106  Biso   1.000  C 
  H231     1.0000 0.92498  0.33684  0.87111  Biso   1.000  H 
  C98      1.0000 0.88567  0.21968  0.83026  Biso   1.000  C 
  C99      1.0000 0.87901  0.29510  0.77598  Biso   1.000  C 
  C100     1.0000 0.83997  0.29470  0.85778  Biso   1.000  C 
  H232     1.0000 0.90730  0.20701  0.79801  Biso   1.000  H 
  H233     1.0000 0.84791  0.20355  0.82195  Biso   1.000  H 
  H234     1.0000 0.90015  0.20458  0.86721  Biso   1.000  H 
  H235     1.0000 0.80640  0.27838  0.84028  Biso   1.000  H 
  H236     1.0000 0.83900  0.33553  0.85671  Biso   1.000  H 
  H237     1.0000 0.83990  0.28426  0.89727  Biso   1.000  H 
  H238     1.0000 0.84458  0.31827  0.77107  Biso   1.000  H 
  H239     1.0000 0.87349  0.26401  0.74908  Biso   1.000  H 
  H240     1.0000 0.90885  0.31733  0.76002  Biso   1.000  H 
  B297     1.0000 0.00000  0.92810  0.86740  Biso   1.000  B 
  B298     1.0000 0.00000  0.88280  0.88280  Biso   1.000  B 
  B299     1.0000 0.00000  0.86740  0.92810  Biso   1.000  B 
  B300     1.0000 0.00000  0.84350  0.84350  Biso   1.000  B 
  B301     1.0000 0.00000  0.85530  0.79420  Biso   1.000  B 
  B302     1.0000 0.00000  0.79420  0.85530  Biso   1.000  B 
  B303     1.0000 0.00000  0.82050  0.75800  Biso   1.000  B 
  B304     1.0000 0.00000  0.88860  0.78510  Biso   1.000  B 
  B305     1.0000 0.00000  0.75800  0.82050  Biso   1.000  B 
  B306     1.0000 0.00000  0.78510  0.88860  Biso   1.000  B 
  B307     1.0000 0.00000  0.76930  0.76930  Biso   1.000  B 
  B308     1.0000 0.00000  0.73070  0.73070  Biso   1.000  B 
  B309     1.0000 0.00000  0.83050  0.72490  Biso   1.000  B 
  B310     1.0000 0.00000  0.74200  0.67950  Biso   1.000  B 
  N21      1.0000 0.01842  0.70713  0.83783  Biso   1.000  N 
  B311     1.0000 0.00000  0.67950  0.74200  Biso   1.000  B 
  B312     1.0000 0.00000  0.70580  0.64470  Biso   1.000  B 
  N22      1.0000 0.02680  0.78910  0.66167  Biso   1.000  N 
  B313     1.0000 0.00000  0.64470  0.70580  Biso   1.000  B 
  B314     1.0000 0.00000  0.66950  0.77510  Biso   1.000  B 
  B315     1.0000 0.00000  0.65650  0.65650  Biso   1.000  B 
  B316     1.0000 0.00000  0.61720  0.61720  Biso   1.000  B 
  B317     1.0000 0.00000  0.71490  0.61140  Biso   1.000  B 
  B318     1.0000 0.00000  0.61140  0.71490  Biso   1.000  B 
  B319     1.0000 0.00000  0.63260  0.57190  Biso   1.000  B 
  B320     1.0000 0.00000  0.57190  0.63260  Biso   1.000  B 
  H241     1.0000 0.06058  0.77960  0.64463  Biso   1.000  H 
  C101     1.0000 0.99754  0.81628  0.62403  Biso   1.000  C 
  C102     1.0000 0.01772  0.86826  0.60468  Biso   1.000  C 
  C103     1.0000 0.98136  0.88541  0.56385  Biso   1.000  C 
  C104     1.0000 0.07055  0.86506  0.57953  Biso   1.000  C 
  C105     1.0000 0.01383  0.90812  0.64774  Biso   1.000  C 
  H242     1.0000 0.09235  0.89979  0.58853  Biso   1.000  H 
  H243     1.0000 0.06827  0.86488  0.53760  Biso   1.000  H 
  H244     1.0000 0.09269  0.83008  0.58888  Biso   1.000  H 
  H245     1.0000 0.97554  0.85870  0.53230  Biso   1.000  H 
  H246     1.0000 0.99543  0.92301  0.54945  Biso   1.000  H 
  H247     1.0000 0.94559  0.89174  0.58362  Biso   1.000  H 
  H248     1.0000 0.04371  0.90169  0.67719  Biso   1.000  H 
  H249     1.0000 0.97834  0.90430  0.66825  Biso   1.000  H 
  H250     1.0000 0.01384  0.94578  0.63338  Biso   1.000  H 
  H251     1.0000 0.95925  0.82396  0.63948  Biso   1.000  H 
  H252     1.0000 0.99610  0.79440  0.58889  Biso   1.000  H 
  C106     1.0000 0.06755  0.70376  0.86175  Biso   1.000  C 
  H253     1.0000 0.99176  0.68976  0.86067  Biso   1.000  H 
  H254     1.0000 0.06480  0.72047  0.90052  Biso   1.000  H 
  C107     1.0000 0.11405  0.72300  0.83106  Biso   1.000  C 
  H255     1.0000 0.07502  0.66315  0.87111  Biso   1.000  H 
  C108     1.0000 0.11433  0.78032  0.83026  Biso   1.000  C 
  C109     1.0000 0.12099  0.70490  0.77598  Biso   1.000  C 
  C110     1.0000 0.16004  0.70530  0.85778  Biso   1.000  C 
  H256     1.0000 0.09270  0.79299  0.79801  Biso   1.000  H 
  H257     1.0000 0.15209  0.79645  0.82195  Biso   1.000  H 
  H258     1.0000 0.09986  0.79542  0.86721  Biso   1.000  H 
  H259     1.0000 0.19360  0.72162  0.84028  Biso   1.000  H 
  H260     1.0000 0.16100  0.66447  0.85671  Biso   1.000  H 
  H261     1.0000 0.16010  0.71574  0.89727  Biso   1.000  H 
  H262     1.0000 0.15542  0.68173  0.77107  Biso   1.000  H 
  H263     1.0000 0.12651  0.73599  0.74908  Biso   1.000  H 
  H264     1.0000 0.09115  0.68267  0.76002  Biso   1.000  H 
  B321     1.0000 0.00000  0.92810  0.13260  Biso   1.000  B 
  B322     1.0000 0.00000  0.88280  0.11720  Biso   1.000  B 
  B323     1.0000 0.00000  0.86740  0.07190  Biso   1.000  B 
  B324     1.0000 0.00000  0.84350  0.15650  Biso   1.000  B 
  B325     1.0000 0.00000  0.85530  0.20580  Biso   1.000  B 
  B326     1.0000 0.00000  0.79420  0.14470  Biso   1.000  B 
  B327     1.0000 0.00000  0.82050  0.24200  Biso   1.000  B 
  B328     1.0000 0.00000  0.88860  0.21490  Biso   1.000  B 
  B329     1.0000 0.00000  0.75800  0.17950  Biso   1.000  B 
  B330     1.0000 0.00000  0.78510  0.11140  Biso   1.000  B 
  B331     1.0000 0.00000  0.76930  0.23070  Biso   1.000  B 
  B332     1.0000 0.00000  0.73070  0.26930  Biso   1.000  B 
  B333     1.0000 0.00000  0.83050  0.27510  Biso   1.000  B 
  B334     1.0000 0.00000  0.74200  0.32050  Biso   1.000  B 
  N23      1.0000 0.98158  0.70713  0.16217  Biso   1.000  N 
  B335     1.0000 0.00000  0.67950  0.25800  Biso   1.000  B 
  B336     1.0000 0.00000  0.70580  0.35530  Biso   1.000  B 
  N24      1.0000 0.97320  0.78910  0.33833  Biso   1.000  N 
  B337     1.0000 0.00000  0.64470  0.29420  Biso   1.000  B 
  B338     1.0000 0.00000  0.66950  0.22490  Biso   1.000  B 
  B339     1.0000 0.00000  0.65650  0.34350  Biso   1.000  B 
  B340     1.0000 0.00000  0.61720  0.38280  Biso   1.000  B 
  B341     1.0000 0.00000  0.71490  0.38860  Biso   1.000  B 
  B342     1.0000 0.00000  0.61140  0.28510  Biso   1.000  B 
  B343     1.0000 0.00000  0.63260  0.42810  Biso   1.000  B 
  B344     1.0000 0.00000  0.57190  0.36740  Biso   1.000  B 
  H265     1.0000 0.93943  0.77960  0.35537  Biso   1.000  H 
  C111     1.0000 0.00246  0.81628  0.37597  Biso   1.000  C 
  C112     1.0000 0.98228  0.86826  0.39532  Biso   1.000  C 
  C113     1.0000 0.01864  0.88541  0.43615  Biso   1.000  C 
  C114     1.0000 0.92945  0.86506  0.42047  Biso   1.000  C 
  C115     1.0000 0.98617  0.90812  0.35226  Biso   1.000  C 
  H266     1.0000 0.90765  0.89979  0.41147  Biso   1.000  H 
  H267     1.0000 0.93173  0.86488  0.46240  Biso   1.000  H 
  H268     1.0000 0.90731  0.83008  0.41112  Biso   1.000  H 
  H269     1.0000 0.02446  0.85870  0.46770  Biso   1.000  H 
  H270     1.0000 0.00457  0.92301  0.45055  Biso   1.000  H 
  H271     1.0000 0.05440  0.89174  0.41638  Biso   1.000  H 
  H272     1.0000 0.95629  0.90169  0.32282  Biso   1.000  H 
  H273     1.0000 0.02166  0.90430  0.33175  Biso   1.000  H 
  H274     1.0000 0.98616  0.94578  0.36662  Biso   1.000  H 
  H275     1.0000 0.04075  0.82396  0.36052  Biso   1.000  H 
  H276     1.0000 0.00390  0.79440  0.41111  Biso   1.000  H 
  C116     1.0000 0.93245  0.70376  0.13825  Biso   1.000  C 
  H277     1.0000 0.00823  0.68976  0.13933  Biso   1.000  H 
  H278     1.0000 0.93520  0.72047  0.09948  Biso   1.000  H 
  C117     1.0000 0.88595  0.72300  0.16894  Biso   1.000  C 
  H279     1.0000 0.92498  0.66315  0.12889  Biso   1.000  H 
  C118     1.0000 0.88567  0.78032  0.16973  Biso   1.000  C 
  C119     1.0000 0.87901  0.70490  0.22402  Biso   1.000  C 
  C120     1.0000 0.83997  0.70530  0.14222  Biso   1.000  C 
  H280     1.0000 0.90730  0.79299  0.20199  Biso   1.000  H 
  H281     1.0000 0.84791  0.79645  0.17805  Biso   1.000  H 
  H282     1.0000 0.90015  0.79542  0.13279  Biso   1.000  H 
  H283     1.0000 0.80640  0.72162  0.15971  Biso   1.000  H 
  H284     1.0000 0.83900  0.66447  0.14329  Biso   1.000  H 
  H285     1.0000 0.83990  0.71574  0.10273  Biso   1.000  H 
  H286     1.0000 0.84458  0.68173  0.22893  Biso   1.000  H 
  H287     1.0000 0.87349  0.73599  0.25092  Biso   1.000  H 
  H288     1.0000 0.90885  0.68267  0.23998  Biso   1.000  H 
  B345     1.0000 0.13260  0.50000  0.57190  Biso   1.000  B 
  B346     1.0000 0.11720  0.50000  0.61720  Biso   1.000  B 
  B347     1.0000 0.07190  0.50000  0.63260  Biso   1.000  B 
  B348     1.0000 0.15650  0.50000  0.65650  Biso   1.000  B 
  B349     1.0000 0.20580  0.50000  0.64470  Biso   1.000  B 
  B350     1.0000 0.14470  0.50000  0.70580  Biso   1.000  B 
  B351     1.0000 0.24200  0.50000  0.67950  Biso   1.000  B 
  B352     1.0000 0.21490  0.50000  0.61140  Biso   1.000  B 
  B353     1.0000 0.17950  0.50000  0.74200  Biso   1.000  B 
  B354     1.0000 0.11140  0.50000  0.71490  Biso   1.000  B 
  B355     1.0000 0.23070  0.50000  0.73070  Biso   1.000  B 
  B356     1.0000 0.26930  0.50000  0.76930  Biso   1.000  B 
  B357     1.0000 0.27510  0.50000  0.66950  Biso   1.000  B 
  B358     1.0000 0.32050  0.50000  0.75800  Biso   1.000  B 
  N25      1.0000 0.16202  0.47698  0.79112  Biso   1.000  N 
  B359     1.0000 0.25800  0.50000  0.82050  Biso   1.000  B 
  B360     1.0000 0.35530  0.50000  0.79420  Biso   1.000  B 
  N26      1.0000 0.34129  0.50064  0.70576  Biso   1.000  N 
  B361     1.0000 0.29420  0.50000  0.85530  Biso   1.000  B 
  B362     1.0000 0.22490  0.50000  0.83050  Biso   1.000  B 
  B363     1.0000 0.34350  0.50000  0.84350  Biso   1.000  B 
  B364     1.0000 0.38280  0.50000  0.88280  Biso   1.000  B 
  B365     1.0000 0.38860  0.50000  0.78510  Biso   1.000  B 
  B366     1.0000 0.28510  0.50000  0.88860  Biso   1.000  B 
  B367     1.0000 0.42810  0.50000  0.86740  Biso   1.000  B 
  B368     1.0000 0.36740  0.50000  0.92810  Biso   1.000  B 
  H289     1.0000 0.36938  0.52770  0.70344  Biso   1.000  H 
  C121     1.0000 0.35852  0.45011  0.69352  Biso   1.000  C 
  C122     1.0000 0.38125  0.44416  0.63997  Biso   1.000  C 
  C123     1.0000 0.43346  0.47183  0.63329  Biso   1.000  C 
  C124     1.0000 0.34446  0.46573  0.59980  Biso   1.000  C 
  C125     1.0000 0.38849  0.38844  0.63179  Biso   1.000  C 
  H290     1.0000 0.33161  0.50380  0.60892  Biso   1.000  H 
  H291     1.0000 0.31104  0.44223  0.59290  Biso   1.000  H 
  H292     1.0000 0.36292  0.46961  0.56252  Biso   1.000  H 
  H293     1.0000 0.42726  0.51188  0.62364  Biso   1.000  H 
  H294     1.0000 0.45464  0.45360  0.60176  Biso   1.000  H 
  H295     1.0000 0.45403  0.47122  0.66903  Biso   1.000  H 
  H296     1.0000 0.41766  0.37472  0.65731  Biso   1.000  H 
  H297     1.0000 0.39981  0.38256  0.59209  Biso   1.000  H 
  H298     1.0000 0.35430  0.36683  0.63878  Biso   1.000  H 
  H299     1.0000 0.32560  0.42465  0.69622  Biso   1.000  H 
  H300     1.0000 0.38713  0.43861  0.72142  Biso   1.000  H 
  C126     1.0000 0.11264  0.49102  0.81087  Biso   1.000  C 
  H301     1.0000 0.15898  0.43912  0.78232  Biso   1.000  H 
  H302     1.0000 0.08262  0.48316  0.78380  Biso   1.000  H 
  C127     1.0000 0.10593  0.54432  0.83024  Biso   1.000  C 
  H303     1.0000 0.10653  0.46707  0.84343  Biso   1.000  H 
  C128     1.0000 0.11085  0.58116  0.78817  Biso   1.000  C 
  C129     1.0000 0.14365  0.56091  0.87110  Biso   1.000  C 
  C130     1.0000 0.05162  0.54704  0.85125  Biso   1.000  C 
  H304     1.0000 0.14873  0.58406  0.77039  Biso   1.000  H 
  H305     1.0000 0.10177  0.61698  0.80552  Biso   1.000  H 
  H306     1.0000 0.08345  0.57299  0.75700  Biso   1.000  H 
  H307     1.0000 0.02452  0.52974  0.82756  Biso   1.000  H 
  H308     1.0000 0.04041  0.58640  0.85934  Biso   1.000  H 
  H309     1.0000 0.04905  0.52774  0.88613  Biso   1.000  H 
  H310     1.0000 0.17931  0.57432  0.85514  Biso   1.000  H 
  H311     1.0000 0.14936  0.52896  0.89611  Biso   1.000  H 
  H312     1.0000 0.13008  0.59155  0.89501  Biso   1.000  H 
  B369     1.0000 0.86740  0.50000  0.57190  Biso   1.000  B 
  B370     1.0000 0.88280  0.50000  0.61720  Biso   1.000  B 
  B371     1.0000 0.92810  0.50000  0.63260  Biso   1.000  B 
  B372     1.0000 0.84350  0.50000  0.65650  Biso   1.000  B 
  B373     1.0000 0.79420  0.50000  0.64470  Biso   1.000  B 
  B374     1.0000 0.85530  0.50000  0.70580  Biso   1.000  B 
  B375     1.0000 0.75800  0.50000  0.67950  Biso   1.000  B 
  B376     1.0000 0.78510  0.50000  0.61140  Biso   1.000  B 
  B377     1.0000 0.82050  0.50000  0.74200  Biso   1.000  B 
  B378     1.0000 0.88860  0.50000  0.71490  Biso   1.000  B 
  B379     1.0000 0.76930  0.50000  0.73070  Biso   1.000  B 
  B380     1.0000 0.73070  0.50000  0.76930  Biso   1.000  B 
  B381     1.0000 0.72490  0.50000  0.66950  Biso   1.000  B 
  B382     1.0000 0.67950  0.50000  0.75800  Biso   1.000  B 
  N27      1.0000 0.83798  0.52302  0.79112  Biso   1.000  N 
  B383     1.0000 0.74200  0.50000  0.82050  Biso   1.000  B 
  B384     1.0000 0.64470  0.50000  0.79420  Biso   1.000  B 
  N28      1.0000 0.65871  0.49936  0.70576  Biso   1.000  N 
  B385     1.0000 0.70580  0.50000  0.85530  Biso   1.000  B 
  B386     1.0000 0.77510  0.50000  0.83050  Biso   1.000  B 
  B387     1.0000 0.65650  0.50000  0.84350  Biso   1.000  B 
  B388     1.0000 0.61720  0.50000  0.88280  Biso   1.000  B 
  B389     1.0000 0.61140  0.50000  0.78510  Biso   1.000  B 
  B390     1.0000 0.71490  0.50000  0.88860  Biso   1.000  B 
  B391     1.0000 0.57190  0.50000  0.86740  Biso   1.000  B 
  B392     1.0000 0.63260  0.50000  0.92810  Biso   1.000  B 
  H313     1.0000 0.63063  0.47230  0.70344  Biso   1.000  H 
  C131     1.0000 0.64148  0.54989  0.69352  Biso   1.000  C 
  C132     1.0000 0.61875  0.55584  0.63997  Biso   1.000  C 
  C133     1.0000 0.56654  0.52817  0.63329  Biso   1.000  C 
  C134     1.0000 0.65554  0.53427  0.59980  Biso   1.000  C 
  C135     1.0000 0.61151  0.61156  0.63179  Biso   1.000  C 
  H314     1.0000 0.66839  0.49620  0.60892  Biso   1.000  H 
  H315     1.0000 0.68896  0.55777  0.59290  Biso   1.000  H 
  H316     1.0000 0.63708  0.53039  0.56252  Biso   1.000  H 
  H317     1.0000 0.57274  0.48812  0.62364  Biso   1.000  H 
  H318     1.0000 0.54536  0.54640  0.60176  Biso   1.000  H 
  H319     1.0000 0.54597  0.52878  0.66903  Biso   1.000  H 
  H320     1.0000 0.58234  0.62528  0.65731  Biso   1.000  H 
  H321     1.0000 0.60019  0.61744  0.59209  Biso   1.000  H 
  H322     1.0000 0.64569  0.63317  0.63878  Biso   1.000  H 
  H323     1.0000 0.67441  0.57535  0.69622  Biso   1.000  H 
  H324     1.0000 0.61287  0.56139  0.72142  Biso   1.000  H 
  C136     1.0000 0.88736  0.50898  0.81087  Biso   1.000  C 
  H325     1.0000 0.84102  0.56088  0.78232  Biso   1.000  H 
  H326     1.0000 0.91738  0.51684  0.78380  Biso   1.000  H 
  C137     1.0000 0.89407  0.45568  0.83024  Biso   1.000  C 
  H327     1.0000 0.89347  0.53293  0.84343  Biso   1.000  H 
  C138     1.0000 0.88915  0.41884  0.78817  Biso   1.000  C 
  C139     1.0000 0.85635  0.43909  0.87110  Biso   1.000  C 
  C140     1.0000 0.94838  0.45296  0.85125  Biso   1.000  C 
  H328     1.0000 0.85127  0.41594  0.77039  Biso   1.000  H 
  H329     1.0000 0.89823  0.38302  0.80552  Biso   1.000  H 
  H330     1.0000 0.91655  0.42701  0.75700  Biso   1.000  H 
  H331     1.0000 0.97548  0.47026  0.82756  Biso   1.000  H 
  H332     1.0000 0.95959  0.41360  0.85934  Biso   1.000  H 
  H333     1.0000 0.95095  0.47226  0.88613  Biso   1.000  H 
  H334     1.0000 0.82069  0.42568  0.85514  Biso   1.000  H 
  H335     1.0000 0.85064  0.47104  0.89611  Biso   1.000  H 
  H336     1.0000 0.86992  0.40845  0.89501  Biso   1.000  H 
  B393     1.0000 0.86740  0.50000  0.42810  Biso   1.000  B 
  B394     1.0000 0.88280  0.50000  0.38280  Biso   1.000  B 
  B395     1.0000 0.92810  0.50000  0.36740  Biso   1.000  B 
  B396     1.0000 0.84350  0.50000  0.34350  Biso   1.000  B 
  B397     1.0000 0.79420  0.50000  0.35530  Biso   1.000  B 
  B398     1.0000 0.85530  0.50000  0.29420  Biso   1.000  B 
  B399     1.0000 0.75800  0.50000  0.32050  Biso   1.000  B 
  B400     1.0000 0.78510  0.50000  0.38860  Biso   1.000  B 
  B401     1.0000 0.82050  0.50000  0.25800  Biso   1.000  B 
  B402     1.0000 0.88860  0.50000  0.28510  Biso   1.000  B 
  B403     1.0000 0.76930  0.50000  0.26930  Biso   1.000  B 
  B404     1.0000 0.73070  0.50000  0.23070  Biso   1.000  B 
  B405     1.0000 0.72490  0.50000  0.33050  Biso   1.000  B 
  B406     1.0000 0.67950  0.50000  0.24200  Biso   1.000  B 
  N29      1.0000 0.83798  0.47698  0.20888  Biso   1.000  N 
  B407     1.0000 0.74200  0.50000  0.17950  Biso   1.000  B 
  B408     1.0000 0.64470  0.50000  0.20580  Biso   1.000  B 
  N30      1.0000 0.65871  0.50064  0.29424  Biso   1.000  N 
  B409     1.0000 0.70580  0.50000  0.14470  Biso   1.000  B 
  B410     1.0000 0.77510  0.50000  0.16950  Biso   1.000  B 
  B411     1.0000 0.65650  0.50000  0.15650  Biso   1.000  B 
  B412     1.0000 0.61720  0.50000  0.11720  Biso   1.000  B 
  B413     1.0000 0.61140  0.50000  0.21490  Biso   1.000  B 
  B414     1.0000 0.71490  0.50000  0.11140  Biso   1.000  B 
  B415     1.0000 0.57190  0.50000  0.13260  Biso   1.000  B 
  B416     1.0000 0.63260  0.50000  0.07190  Biso   1.000  B 
  H337     1.0000 0.63063  0.52770  0.29656  Biso   1.000  H 
  C141     1.0000 0.64148  0.45011  0.30648  Biso   1.000  C 
  C142     1.0000 0.61875  0.44416  0.36003  Biso   1.000  C 
  C143     1.0000 0.56654  0.47183  0.36671  Biso   1.000  C 
  C144     1.0000 0.65554  0.46573  0.40020  Biso   1.000  C 
  C145     1.0000 0.61151  0.38844  0.36821  Biso   1.000  C 
  H338     1.0000 0.66839  0.50380  0.39108  Biso   1.000  H 
  H339     1.0000 0.68896  0.44223  0.40710  Biso   1.000  H 
  H340     1.0000 0.63708  0.46961  0.43748  Biso   1.000  H 
  H341     1.0000 0.57274  0.51188  0.37636  Biso   1.000  H 
  H342     1.0000 0.54536  0.45360  0.39824  Biso   1.000  H 
  H343     1.0000 0.54597  0.47122  0.33097  Biso   1.000  H 
  H344     1.0000 0.58234  0.37472  0.34269  Biso   1.000  H 
  H345     1.0000 0.60019  0.38256  0.40791  Biso   1.000  H 
  H346     1.0000 0.64569  0.36683  0.36122  Biso   1.000  H 
  H347     1.0000 0.67441  0.42465  0.30378  Biso   1.000  H 
  H348     1.0000 0.61287  0.43861  0.27858  Biso   1.000  H 
  C146     1.0000 0.88736  0.49102  0.18913  Biso   1.000  C 
  H349     1.0000 0.84102  0.43912  0.21768  Biso   1.000  H 
  H350     1.0000 0.91738  0.48316  0.21620  Biso   1.000  H 
  C147     1.0000 0.89407  0.54432  0.16976  Biso   1.000  C 
  H351     1.0000 0.89347  0.46707  0.15657  Biso   1.000  H 
  C148     1.0000 0.88915  0.58116  0.21183  Biso   1.000  C 
  C149     1.0000 0.85635  0.56091  0.12890  Biso   1.000  C 
  C150     1.0000 0.94838  0.54704  0.14875  Biso   1.000  C 
  H352     1.0000 0.85127  0.58406  0.22961  Biso   1.000  H 
  H353     1.0000 0.89823  0.61698  0.19448  Biso   1.000  H 
  H354     1.0000 0.91655  0.57299  0.24300  Biso   1.000  H 
  H355     1.0000 0.97548  0.52974  0.17244  Biso   1.000  H 
  H356     1.0000 0.95959  0.58640  0.14066  Biso   1.000  H 
  H357     1.0000 0.95095  0.52774  0.11387  Biso   1.000  H 
  H358     1.0000 0.82069  0.57432  0.14486  Biso   1.000  H 
  H359     1.0000 0.85064  0.52896  0.10389  Biso   1.000  H 
  H360     1.0000 0.86992  0.59155  0.10499  Biso   1.000  H 
  B417     1.0000 0.13260  0.50000  0.42810  Biso   1.000  B 
  B418     1.0000 0.11720  0.50000  0.38280  Biso   1.000  B 
  B419     1.0000 0.07190  0.50000  0.36740  Biso   1.000  B 
  B420     1.0000 0.15650  0.50000  0.34350  Biso   1.000  B 
  B421     1.0000 0.20580  0.50000  0.35530  Biso   1.000  B 
  B422     1.0000 0.14470  0.50000  0.29420  Biso   1.000  B 
  B423     1.0000 0.24200  0.50000  0.32050  Biso   1.000  B 
  B424     1.0000 0.21490  0.50000  0.38860  Biso   1.000  B 
  B425     1.0000 0.17950  0.50000  0.25800  Biso   1.000  B 
  B426     1.0000 0.11140  0.50000  0.28510  Biso   1.000  B 
  B427     1.0000 0.23070  0.50000  0.26930  Biso   1.000  B 
  B428     1.0000 0.26930  0.50000  0.23070  Biso   1.000  B 
  B429     1.0000 0.27510  0.50000  0.33050  Biso   1.000  B 
  B430     1.0000 0.32050  0.50000  0.24200  Biso   1.000  B 
  N31      1.0000 0.16202  0.52302  0.20888  Biso   1.000  N 
  B431     1.0000 0.25800  0.50000  0.17950  Biso   1.000  B 
  B432     1.0000 0.35530  0.50000  0.20580  Biso   1.000  B 
  N32      1.0000 0.34129  0.49936  0.29424  Biso   1.000  N 
  B433     1.0000 0.29420  0.50000  0.14470  Biso   1.000  B 
  B434     1.0000 0.22490  0.50000  0.16950  Biso   1.000  B 
  B435     1.0000 0.34350  0.50000  0.15650  Biso   1.000  B 
  B436     1.0000 0.38280  0.50000  0.11720  Biso   1.000  B 
  B437     1.0000 0.38860  0.50000  0.21490  Biso   1.000  B 
  B438     1.0000 0.28510  0.50000  0.11140  Biso   1.000  B 
  B439     1.0000 0.42810  0.50000  0.13260  Biso   1.000  B 
  B440     1.0000 0.36740  0.50000  0.07190  Biso   1.000  B 
  H361     1.0000 0.36938  0.47230  0.29656  Biso   1.000  H 
  C151     1.0000 0.35852  0.54989  0.30648  Biso   1.000  C 
  C152     1.0000 0.38125  0.55584  0.36003  Biso   1.000  C 
  C153     1.0000 0.43346  0.52817  0.36671  Biso   1.000  C 
  C154     1.0000 0.34446  0.53427  0.40020  Biso   1.000  C 
  C155     1.0000 0.38849  0.61156  0.36821  Biso   1.000  C 
  H362     1.0000 0.33161  0.49620  0.39108  Biso   1.000  H 
  H363     1.0000 0.31104  0.55777  0.40710  Biso   1.000  H 
  H364     1.0000 0.36292  0.53039  0.43748  Biso   1.000  H 
  H365     1.0000 0.42726  0.48812  0.37636  Biso   1.000  H 
  H366     1.0000 0.45464  0.54640  0.39824  Biso   1.000  H 
  H367     1.0000 0.45403  0.52878  0.33097  Biso   1.000  H 
  H368     1.0000 0.41766  0.62528  0.34269  Biso   1.000  H 
  H369     1.0000 0.39981  0.61744  0.40791  Biso   1.000  H 
  H370     1.0000 0.35430  0.63317  0.36122  Biso   1.000  H 
  H371     1.0000 0.32560  0.57535  0.30378  Biso   1.000  H 
  H372     1.0000 0.38713  0.56139  0.27858  Biso   1.000  H 
  C156     1.0000 0.11264  0.50898  0.18913  Biso   1.000  C 
  H373     1.0000 0.15898  0.56088  0.21768  Biso   1.000  H 
  H374     1.0000 0.08262  0.51684  0.21620  Biso   1.000  H 
  C157     1.0000 0.10593  0.45568  0.16976  Biso   1.000  C 
  H375     1.0000 0.10653  0.53293  0.15657  Biso   1.000  H 
  C158     1.0000 0.11085  0.41884  0.21183  Biso   1.000  C 
  C159     1.0000 0.14365  0.43909  0.12890  Biso   1.000  C 
  C160     1.0000 0.05162  0.45296  0.14875  Biso   1.000  C 
  H376     1.0000 0.14873  0.41594  0.22961  Biso   1.000  H 
  H377     1.0000 0.10177  0.38302  0.19448  Biso   1.000  H 
  H378     1.0000 0.08345  0.42701  0.24300  Biso   1.000  H 
  H379     1.0000 0.02452  0.47026  0.17244  Biso   1.000  H 
  H380     1.0000 0.04041  0.41360  0.14066  Biso   1.000  H 
  H381     1.0000 0.04905  0.47226  0.11387  Biso   1.000  H 
  H382     1.0000 0.17931  0.42568  0.14486  Biso   1.000  H 
  H383     1.0000 0.14936  0.47104  0.10389  Biso   1.000  H 
  H384     1.0000 0.13008  0.40845  0.10499  Biso   1.000  H 
  B441     1.0000 0.07190  0.63260  0.50000  Biso   1.000  B 
  B442     1.0000 0.11720  0.61720  0.50000  Biso   1.000  B 
  B443     1.0000 0.13260  0.57190  0.50000  Biso   1.000  B 
  B444     1.0000 0.15650  0.65650  0.50000  Biso   1.000  B 
  B445     1.0000 0.14470  0.70580  0.50000  Biso   1.000  B 
  B446     1.0000 0.20580  0.64470  0.50000  Biso   1.000  B 
  B447     1.0000 0.17950  0.74200  0.50000  Biso   1.000  B 
  B448     1.0000 0.11140  0.71490  0.50000  Biso   1.000  B 
  B449     1.0000 0.24200  0.67950  0.50000  Biso   1.000  B 
  B450     1.0000 0.21490  0.61140  0.50000  Biso   1.000  B 
  B451     1.0000 0.23070  0.73070  0.50000  Biso   1.000  B 
  B452     1.0000 0.26930  0.76930  0.50000  Biso   1.000  B 
  B453     1.0000 0.16950  0.77510  0.50000  Biso   1.000  B 
  B454     1.0000 0.25800  0.82050  0.50000  Biso   1.000  B 
  N33      1.0000 0.29225  0.66256  0.52180  Biso   1.000  N 
  B455     1.0000 0.32050  0.75800  0.50000  Biso   1.000  B 
  B456     1.0000 0.29420  0.85530  0.50000  Biso   1.000  B 
  N34      1.0000 0.21154  0.83625  0.47323  Biso   1.000  N 
  B457     1.0000 0.35530  0.79420  0.50000  Biso   1.000  B 
  B458     1.0000 0.33050  0.72490  0.50000  Biso   1.000  B 
  B459     1.0000 0.34350  0.84350  0.50000  Biso   1.000  B 
  B460     1.0000 0.38280  0.88280  0.50000  Biso   1.000  B 
  B461     1.0000 0.28510  0.88860  0.50000  Biso   1.000  B 
  B462     1.0000 0.38860  0.78510  0.50000  Biso   1.000  B 
  B463     1.0000 0.36740  0.92810  0.50000  Biso   1.000  B 
  B464     1.0000 0.42810  0.86740  0.50000  Biso   1.000  B 
  H385     1.0000 0.19598  0.86845  0.48864  Biso   1.000  H 
  C161     1.0000 0.22621  0.84797  0.42190  Biso   1.000  C 
  C162     1.0000 0.18120  0.84997  0.38700  Biso   1.000  C 
  C163     1.0000 0.20106  0.85131  0.33346  Biso   1.000  C 
  C164     1.0000 0.14854  0.89550  0.39481  Biso   1.000  C 
  C165     1.0000 0.15083  0.80193  0.39065  Biso   1.000  C 
  H386     1.0000 0.12110  0.89877  0.36364  Biso   1.000  H 
  H387     1.0000 0.16900  0.93044  0.39416  Biso   1.000  H 
  H388     1.0000 0.13071  0.89153  0.43137  Biso   1.000  H 
  H389     1.0000 0.22305  0.88624  0.32618  Biso   1.000  H 
  H390     1.0000 0.17117  0.85060  0.30497  Biso   1.000  H 
  H391     1.0000 0.22872  0.82191  0.32521  Biso   1.000  H 
  H392     1.0000 0.17533  0.76876  0.39272  Biso   1.000  H 
  H393     1.0000 0.12135  0.80004  0.36054  Biso   1.000  H 
  H394     1.0000 0.12907  0.80192  0.42564  Biso   1.000  H 
  H395     1.0000 0.25292  0.81910  0.40809  Biso   1.000  H 
  H396     1.0000 0.24327  0.88562  0.42086  Biso   1.000  H 
  C166     1.0000 0.29378  0.64072  0.57224  Biso   1.000  C 
  H397     1.0000 0.30559  0.63618  0.49685  Biso   1.000  H 
  H398     1.0000 0.28089  0.60224  0.56893  Biso   1.000  H 
  C167     1.0000 0.26398  0.66376  0.61729  Biso   1.000  C 
  H399     1.0000 0.33227  0.63482  0.58354  Biso   1.000  H 
  C168     1.0000 0.20999  0.64827  0.61573  Biso   1.000  C 
  C169     1.0000 0.26617  0.72056  0.61717  Biso   1.000  C 
  C170     1.0000 0.29061  0.64491  0.66768  Biso   1.000  C 
  H400     1.0000 0.18526  0.67055  0.59042  Biso   1.000  H 
  H401     1.0000 0.19043  0.65613  0.65164  Biso   1.000  H 
  H402     1.0000 0.20875  0.60881  0.60396  Biso   1.000  H 
  H403     1.0000 0.29766  0.60397  0.66289  Biso   1.000  H 
  H404     1.0000 0.26759  0.65048  0.70178  Biso   1.000  H 
  H405     1.0000 0.32550  0.66591  0.67519  Biso   1.000  H 
  H406     1.0000 0.23853  0.73847  0.59305  Biso   1.000  H 
  H407     1.0000 0.30428  0.73524  0.60941  Biso   1.000  H 
  H408     1.0000 0.25689  0.73460  0.65534  Biso   1.000  H 
  B465     1.0000 0.07190  0.36740  0.50000  Biso   1.000  B 
  B466     1.0000 0.11720  0.38280  0.50000  Biso   1.000  B 
  B467     1.0000 0.13260  0.42810  0.50000  Biso   1.000  B 
  B468     1.0000 0.15650  0.34350  0.50000  Biso   1.000  B 
  B469     1.0000 0.14470  0.29420  0.50000  Biso   1.000  B 
  B470     1.0000 0.20580  0.35530  0.50000  Biso   1.000  B 
  B471     1.0000 0.17950  0.25800  0.50000  Biso   1.000  B 
  B472     1.0000 0.11140  0.28510  0.50000  Biso   1.000  B 
  B473     1.0000 0.24200  0.32050  0.50000  Biso   1.000  B 
  B474     1.0000 0.21490  0.38860  0.50000  Biso   1.000  B 
  B475     1.0000 0.23070  0.26930  0.50000  Biso   1.000  B 
  B476     1.0000 0.26930  0.23070  0.50000  Biso   1.000  B 
  B477     1.0000 0.16950  0.22490  0.50000  Biso   1.000  B 
  B478     1.0000 0.25800  0.17950  0.50000  Biso   1.000  B 
  N35      1.0000 0.29225  0.33744  0.47820  Biso   1.000  N 
  B479     1.0000 0.32050  0.24200  0.50000  Biso   1.000  B 
  B480     1.0000 0.29420  0.14470  0.50000  Biso   1.000  B 
  N36      1.0000 0.21154  0.16374  0.52677  Biso   1.000  N 
  B481     1.0000 0.35530  0.20580  0.50000  Biso   1.000  B 
  B482     1.0000 0.33050  0.27510  0.50000  Biso   1.000  B 
  B483     1.0000 0.34350  0.15650  0.50000  Biso   1.000  B 
  B484     1.0000 0.38280  0.11720  0.50000  Biso   1.000  B 
  B485     1.0000 0.28510  0.11140  0.50000  Biso   1.000  B 
  B486     1.0000 0.38860  0.21490  0.50000  Biso   1.000  B 
  B487     1.0000 0.36740  0.07190  0.50000  Biso   1.000  B 
  B488     1.0000 0.42810  0.13260  0.50000  Biso   1.000  B 
  H409     1.0000 0.19598  0.13155  0.51136  Biso   1.000  H 
  C171     1.0000 0.22621  0.15203  0.57810  Biso   1.000  C 
  C172     1.0000 0.18120  0.15003  0.61300  Biso   1.000  C 
  C173     1.0000 0.20106  0.14869  0.66654  Biso   1.000  C 
  C174     1.0000 0.14854  0.10450  0.60519  Biso   1.000  C 
  C175     1.0000 0.15083  0.19807  0.60935  Biso   1.000  C 
  H410     1.0000 0.12110  0.10123  0.63636  Biso   1.000  H 
  H411     1.0000 0.16900  0.06956  0.60584  Biso   1.000  H 
  H412     1.0000 0.13071  0.10847  0.56863  Biso   1.000  H 
  H413     1.0000 0.22305  0.11376  0.67381  Biso   1.000  H 
  H414     1.0000 0.17117  0.14940  0.69503  Biso   1.000  H 
  H415     1.0000 0.22872  0.17810  0.67479  Biso   1.000  H 
  H416     1.0000 0.17533  0.23124  0.60728  Biso   1.000  H 
  H417     1.0000 0.12135  0.19995  0.63946  Biso   1.000  H 
  H418     1.0000 0.12907  0.19808  0.57436  Biso   1.000  H 
  H419     1.0000 0.25292  0.18090  0.59191  Biso   1.000  H 
  H420     1.0000 0.24327  0.11438  0.57914  Biso   1.000  H 
  C176     1.0000 0.29378  0.35928  0.42776  Biso   1.000  C 
  H421     1.0000 0.30559  0.36382  0.50315  Biso   1.000  H 
  H422     1.0000 0.28089  0.39776  0.43107  Biso   1.000  H 
  C177     1.0000 0.26398  0.33624  0.38271  Biso   1.000  C 
  H423     1.0000 0.33227  0.36519  0.41646  Biso   1.000  H 
  C178     1.0000 0.20999  0.35173  0.38427  Biso   1.000  C 
  C179     1.0000 0.26617  0.27944  0.38283  Biso   1.000  C 
  C180     1.0000 0.29061  0.35509  0.33232  Biso   1.000  C 
  H424     1.0000 0.18526  0.32945  0.40958  Biso   1.000  H 
  H425     1.0000 0.19043  0.34387  0.34837  Biso   1.000  H 
  H426     1.0000 0.20875  0.39119  0.39604  Biso   1.000  H 
  H427     1.0000 0.29766  0.39603  0.33711  Biso   1.000  H 
  H428     1.0000 0.26759  0.34952  0.29822  Biso   1.000  H 
  H429     1.0000 0.32550  0.33409  0.32481  Biso   1.000  H 
  H430     1.0000 0.23853  0.26153  0.40695  Biso   1.000  H 
  H431     1.0000 0.30428  0.26476  0.39059  Biso   1.000  H 
  H432     1.0000 0.25689  0.26540  0.34466  Biso   1.000  H 
  B489     1.0000 0.92810  0.36740  0.50000  Biso   1.000  B 
  B490     1.0000 0.88280  0.38280  0.50000  Biso   1.000  B 
  B491     1.0000 0.86740  0.42810  0.50000  Biso   1.000  B 
  B492     1.0000 0.84350  0.34350  0.50000  Biso   1.000  B 
  B493     1.0000 0.85530  0.29420  0.50000  Biso   1.000  B 
  B494     1.0000 0.79420  0.35530  0.50000  Biso   1.000  B 
  B495     1.0000 0.82050  0.25800  0.50000  Biso   1.000  B 
  B496     1.0000 0.88860  0.28510  0.50000  Biso   1.000  B 
  B497     1.0000 0.75800  0.32050  0.50000  Biso   1.000  B 
  B498     1.0000 0.78510  0.38860  0.50000  Biso   1.000  B 
  B499     1.0000 0.76930  0.26930  0.50000  Biso   1.000  B 
  B500     1.0000 0.73070  0.23070  0.50000  Biso   1.000  B 
  B501     1.0000 0.83050  0.22490  0.50000  Biso   1.000  B 
  B502     1.0000 0.74200  0.17950  0.50000  Biso   1.000  B 
  N37      1.0000 0.70774  0.33744  0.52180  Biso   1.000  N 
  B503     1.0000 0.67950  0.24200  0.50000  Biso   1.000  B 
  B504     1.0000 0.70580  0.14470  0.50000  Biso   1.000  B 
  N38      1.0000 0.78846  0.16374  0.47323  Biso   1.000  N 
  B505     1.0000 0.64470  0.20580  0.50000  Biso   1.000  B 
  B506     1.0000 0.66950  0.27510  0.50000  Biso   1.000  B 
  B507     1.0000 0.65650  0.15650  0.50000  Biso   1.000  B 
  B508     1.0000 0.61720  0.11720  0.50000  Biso   1.000  B 
  B509     1.0000 0.71490  0.11140  0.50000  Biso   1.000  B 
  B510     1.0000 0.61140  0.21490  0.50000  Biso   1.000  B 
  B511     1.0000 0.63260  0.07190  0.50000  Biso   1.000  B 
  B512     1.0000 0.57190  0.13260  0.50000  Biso   1.000  B 
  H433     1.0000 0.80402  0.13155  0.48864  Biso   1.000  H 
  C181     1.0000 0.77380  0.15203  0.42190  Biso   1.000  C 
  C182     1.0000 0.81879  0.15003  0.38700  Biso   1.000  C 
  C183     1.0000 0.79894  0.14869  0.33346  Biso   1.000  C 
  C184     1.0000 0.85146  0.10450  0.39481  Biso   1.000  C 
  C185     1.0000 0.84917  0.19807  0.39065  Biso   1.000  C 
  H434     1.0000 0.87890  0.10123  0.36364  Biso   1.000  H 
  H435     1.0000 0.83100  0.06956  0.39416  Biso   1.000  H 
  H436     1.0000 0.86929  0.10847  0.43137  Biso   1.000  H 
  H437     1.0000 0.77695  0.11376  0.32618  Biso   1.000  H 
  H438     1.0000 0.82883  0.14940  0.30497  Biso   1.000  H 
  H439     1.0000 0.77127  0.17810  0.32521  Biso   1.000  H 
  H440     1.0000 0.82467  0.23124  0.39272  Biso   1.000  H 
  H441     1.0000 0.87865  0.19995  0.36054  Biso   1.000  H 
  H442     1.0000 0.87093  0.19808  0.42564  Biso   1.000  H 
  H443     1.0000 0.74708  0.18090  0.40809  Biso   1.000  H 
  H444     1.0000 0.75673  0.11438  0.42086  Biso   1.000  H 
  C186     1.0000 0.70622  0.35928  0.57224  Biso   1.000  C 
  H445     1.0000 0.69441  0.36382  0.49685  Biso   1.000  H 
  H446     1.0000 0.71911  0.39776  0.56893  Biso   1.000  H 
  C187     1.0000 0.73602  0.33624  0.61729  Biso   1.000  C 
  H447     1.0000 0.66773  0.36519  0.58354  Biso   1.000  H 
  C188     1.0000 0.79001  0.35173  0.61573  Biso   1.000  C 
  C189     1.0000 0.73383  0.27944  0.61717  Biso   1.000  C 
  C190     1.0000 0.70939  0.35509  0.66768  Biso   1.000  C 
  H448     1.0000 0.81473  0.32945  0.59042  Biso   1.000  H 
  H449     1.0000 0.80957  0.34387  0.65164  Biso   1.000  H 
  H450     1.0000 0.79125  0.39119  0.60396  Biso   1.000  H 
  H451     1.0000 0.70234  0.39603  0.66289  Biso   1.000  H 
  H452     1.0000 0.73241  0.34952  0.70178  Biso   1.000  H 
  H453     1.0000 0.67450  0.33409  0.67519  Biso   1.000  H 
  H454     1.0000 0.76147  0.26153  0.59305  Biso   1.000  H 
  H455     1.0000 0.69572  0.26476  0.60941  Biso   1.000  H 
  H456     1.0000 0.74311  0.26540  0.65534  Biso   1.000  H 
  B513     1.0000 0.92810  0.63260  0.50000  Biso   1.000  B 
  B514     1.0000 0.88280  0.61720  0.50000  Biso   1.000  B 
  B515     1.0000 0.86740  0.57190  0.50000  Biso   1.000  B 
  B516     1.0000 0.84350  0.65650  0.50000  Biso   1.000  B 
  B517     1.0000 0.85530  0.70580  0.50000  Biso   1.000  B 
  B518     1.0000 0.79420  0.64470  0.50000  Biso   1.000  B 
  B519     1.0000 0.82050  0.74200  0.50000  Biso   1.000  B 
  B520     1.0000 0.88860  0.71490  0.50000  Biso   1.000  B 
  B521     1.0000 0.75800  0.67950  0.50000  Biso   1.000  B 
  B522     1.0000 0.78510  0.61140  0.50000  Biso   1.000  B 
  B523     1.0000 0.76930  0.73070  0.50000  Biso   1.000  B 
  B524     1.0000 0.73070  0.76930  0.50000  Biso   1.000  B 
  B525     1.0000 0.83050  0.77510  0.50000  Biso   1.000  B 
  B526     1.0000 0.74200  0.82050  0.50000  Biso   1.000  B 
  N39      1.0000 0.70774  0.66256  0.47820  Biso   1.000  N 
  B527     1.0000 0.67950  0.75800  0.50000  Biso   1.000  B 
  B528     1.0000 0.70580  0.85530  0.50000  Biso   1.000  B 
  N40      1.0000 0.78846  0.83625  0.52677  Biso   1.000  N 
  B529     1.0000 0.64470  0.79420  0.50000  Biso   1.000  B 
  B530     1.0000 0.66950  0.72490  0.50000  Biso   1.000  B 
  B531     1.0000 0.65650  0.84350  0.50000  Biso   1.000  B 
  B532     1.0000 0.61720  0.88280  0.50000  Biso   1.000  B 
  B533     1.0000 0.71490  0.88860  0.50000  Biso   1.000  B 
  B534     1.0000 0.61140  0.78510  0.50000  Biso   1.000  B 
  B535     1.0000 0.63260  0.92810  0.50000  Biso   1.000  B 
  B536     1.0000 0.57190  0.86740  0.50000  Biso   1.000  B 
  H457     1.0000 0.80402  0.86845  0.51136  Biso   1.000  H 
  C191     1.0000 0.77380  0.84797  0.57810  Biso   1.000  C 
  C192     1.0000 0.81879  0.84997  0.61300  Biso   1.000  C 
  C193     1.0000 0.79894  0.85131  0.66654  Biso   1.000  C 
  C194     1.0000 0.85146  0.89550  0.60519  Biso   1.000  C 
  C195     1.0000 0.84917  0.80193  0.60935  Biso   1.000  C 
  H458     1.0000 0.87890  0.89877  0.63636  Biso   1.000  H 
  H459     1.0000 0.83100  0.93044  0.60584  Biso   1.000  H 
  H460     1.0000 0.86929  0.89153  0.56863  Biso   1.000  H 
  H461     1.0000 0.77695  0.88624  0.67381  Biso   1.000  H 
  H462     1.0000 0.82883  0.85060  0.69503  Biso   1.000  H 
  H463     1.0000 0.77127  0.82191  0.67479  Biso   1.000  H 
  H464     1.0000 0.82467  0.76876  0.60728  Biso   1.000  H 
  H465     1.0000 0.87865  0.80004  0.63946  Biso   1.000  H 
  H466     1.0000 0.87093  0.80192  0.57436  Biso   1.000  H 
  H467     1.0000 0.74708  0.81910  0.59191  Biso   1.000  H 
  H468     1.0000 0.75673  0.88562  0.57914  Biso   1.000  H 
  C196     1.0000 0.70622  0.64072  0.42776  Biso   1.000  C 
  H469     1.0000 0.69441  0.63618  0.50315  Biso   1.000  H 
  H470     1.0000 0.71911  0.60224  0.43107  Biso   1.000  H 
  C197     1.0000 0.73602  0.66376  0.38271  Biso   1.000  C 
  H471     1.0000 0.66773  0.63482  0.41646  Biso   1.000  H 
  C198     1.0000 0.79001  0.64827  0.38427  Biso   1.000  C 
  C199     1.0000 0.73383  0.72056  0.38283  Biso   1.000  C 
  C200     1.0000 0.70939  0.64491  0.33232  Biso   1.000  C 
  H472     1.0000 0.81473  0.67055  0.40958  Biso   1.000  H 
  H473     1.0000 0.80957  0.65613  0.34837  Biso   1.000  H 
  H474     1.0000 0.79125  0.60881  0.39604  Biso   1.000  H 
  H475     1.0000 0.70234  0.60397  0.33711  Biso   1.000  H 
  H476     1.0000 0.73241  0.65048  0.29822  Biso   1.000  H 
  H477     1.0000 0.67450  0.66591  0.32481  Biso   1.000  H 
  H478     1.0000 0.76147  0.73847  0.40695  Biso   1.000  H 
  H479     1.0000 0.69572  0.73524  0.39059  Biso   1.000  H 
  H480     1.0000 0.74311  0.73460  0.34466  Biso   1.000  H 
  B537     1.0000 0.50000  0.07190  0.63260  Biso   1.000  B 
  B538     1.0000 0.50000  0.11720  0.61720  Biso   1.000  B 
  B539     1.0000 0.50000  0.13260  0.57190  Biso   1.000  B 
  B540     1.0000 0.50000  0.15650  0.65650  Biso   1.000  B 
  B541     1.0000 0.50000  0.14470  0.70580  Biso   1.000  B 
  B542     1.0000 0.50000  0.20580  0.64470  Biso   1.000  B 
  B543     1.0000 0.50000  0.17950  0.74200  Biso   1.000  B 
  B544     1.0000 0.50000  0.11140  0.71490  Biso   1.000  B 
  B545     1.0000 0.50000  0.24200  0.67950  Biso   1.000  B 
  B546     1.0000 0.50000  0.21490  0.61140  Biso   1.000  B 
  B547     1.0000 0.50000  0.23070  0.73070  Biso   1.000  B 
  B548     1.0000 0.50000  0.26930  0.76930  Biso   1.000  B 
  B549     1.0000 0.50000  0.16950  0.77510  Biso   1.000  B 
  B550     1.0000 0.50000  0.25800  0.82050  Biso   1.000  B 
  N41      1.0000 0.48573  0.29369  0.66063  Biso   1.000  N 
  B551     1.0000 0.50000  0.32050  0.75800  Biso   1.000  B 
  B552     1.0000 0.50000  0.29420  0.85530  Biso   1.000  B 
  N42      1.0000 0.47413  0.21074  0.83586  Biso   1.000  N 
  B553     1.0000 0.50000  0.35530  0.79420  Biso   1.000  B 
  B554     1.0000 0.50000  0.33050  0.72490  Biso   1.000  B 
  B555     1.0000 0.50000  0.34350  0.84350  Biso   1.000  B 
  B556     1.0000 0.50000  0.38280  0.88280  Biso   1.000  B 
  B557     1.0000 0.50000  0.28510  0.88860  Biso   1.000  B 
  B558     1.0000 0.50000  0.38860  0.78510  Biso   1.000  B 
  B559     1.0000 0.50000  0.36740  0.92810  Biso   1.000  B 
  B560     1.0000 0.50000  0.42810  0.86740  Biso   1.000  B 
  H481     1.0000 0.48679  0.19527  0.86890  Biso   1.000  H 
  C201     1.0000 0.42020  0.22386  0.83585  Biso   1.000  C 
  C202     1.0000 0.38376  0.18054  0.82304  Biso   1.000  C 
  C203     1.0000 0.33050  0.19863  0.81205  Biso   1.000  C 
  C204     1.0000 0.38238  0.14876  0.87011  Biso   1.000  C 
  C205     1.0000 0.39991  0.14869  0.77893  Biso   1.000  C 
  H482     1.0000 0.35293  0.12111  0.86806  Biso   1.000  H 
  H483     1.0000 0.37457  0.16763  0.90571  Biso   1.000  H 
  H484     1.0000 0.41833  0.12786  0.87170  Biso   1.000  H 
  H485     1.0000 0.31468  0.22224  0.84299  Biso   1.000  H 
  H486     1.0000 0.30620  0.16603  0.80442  Biso   1.000  H 
  H487     1.0000 0.33190  0.22153  0.77723  Biso   1.000  H 
  H488     1.0000 0.40541  0.16804  0.74232  Biso   1.000  H 
  H489     1.0000 0.36946  0.12149  0.77104  Biso   1.000  H 
  H490     1.0000 0.43260  0.12547  0.79042  Biso   1.000  H 
  H491     1.0000 0.41182  0.25161  0.80615  Biso   1.000  H 
  H492     1.0000 0.41182  0.24343  0.87174  Biso   1.000  H 
  C206     1.0000 0.50223  0.31521  0.61364  Biso   1.000  C 
  H493     1.0000 0.44681  0.29300  0.65911  Biso   1.000  H 
  H494     1.0000 0.49104  0.29186  0.58086  Biso   1.000  H 
  C207     1.0000 0.55856  0.33037  0.60649  Biso   1.000  C 
  H495     1.0000 0.48054  0.34994  0.60997  Biso   1.000  H 
  C208     1.0000 0.59446  0.28431  0.59671  Biso   1.000  C 
  C209     1.0000 0.57559  0.36143  0.65185  Biso   1.000  C 
  C210     1.0000 0.56036  0.36333  0.55773  Biso   1.000  C 
  H496     1.0000 0.60496  0.26544  0.63196  Biso   1.000  H 
  H497     1.0000 0.62823  0.29569  0.57829  Biso   1.000  H 
  H498     1.0000 0.58012  0.25671  0.56994  Biso   1.000  H 
  H499     1.0000 0.54673  0.34256  0.52559  Biso   1.000  H 
  H500     1.0000 0.59850  0.37301  0.54307  Biso   1.000  H 
  H501     1.0000 0.53912  0.39964  0.56087  Biso   1.000  H 
  H502     1.0000 0.58092  0.33450  0.68208  Biso   1.000  H 
  H503     1.0000 0.54407  0.38782  0.66268  Biso   1.000  H 
  H504     1.0000 0.61006  0.38338  0.64486  Biso   1.000  H 
  B561     1.0000 0.50000  0.07190  0.36740  Biso   1.000  B 
  B562     1.0000 0.50000  0.11720  0.38280  Biso   1.000  B 
  B563     1.0000 0.50000  0.13260  0.42810  Biso   1.000  B 
  B564     1.0000 0.50000  0.15650  0.34350  Biso   1.000  B 
  B565     1.0000 0.50000  0.14470  0.29420  Biso   1.000  B 
  B566     1.0000 0.50000  0.20580  0.35530  Biso   1.000  B 
  B567     1.0000 0.50000  0.17950  0.25800  Biso   1.000  B 
  B568     1.0000 0.50000  0.11140  0.28510  Biso   1.000  B 
  B569     1.0000 0.50000  0.24200  0.32050  Biso   1.000  B 
  B570     1.0000 0.50000  0.21490  0.38860  Biso   1.000  B 
  B571     1.0000 0.50000  0.23070  0.26930  Biso   1.000  B 
  B572     1.0000 0.50000  0.26930  0.23070  Biso   1.000  B 
  B573     1.0000 0.50000  0.16950  0.22490  Biso   1.000  B 
  B574     1.0000 0.50000  0.25800  0.17950  Biso   1.000  B 
  N43      1.0000 0.51427  0.29369  0.33937  Biso   1.000  N 
  B575     1.0000 0.50000  0.32050  0.24200  Biso   1.000  B 
  B576     1.0000 0.50000  0.29420  0.14470  Biso   1.000  B 
  N44      1.0000 0.52587  0.21074  0.16414  Biso   1.000  N 
  B577     1.0000 0.50000  0.35530  0.20580  Biso   1.000  B 
  B578     1.0000 0.50000  0.33050  0.27510  Biso   1.000  B 
  B579     1.0000 0.50000  0.34350  0.15650  Biso   1.000  B 
  B580     1.0000 0.50000  0.38280  0.11720  Biso   1.000  B 
  B581     1.0000 0.50000  0.28510  0.11140  Biso   1.000  B 
  B582     1.0000 0.50000  0.38860  0.21490  Biso   1.000  B 
  B583     1.0000 0.50000  0.36740  0.07190  Biso   1.000  B 
  B584     1.0000 0.50000  0.42810  0.13260  Biso   1.000  B 
  H505     1.0000 0.51321  0.19527  0.13110  Biso   1.000  H 
  C211     1.0000 0.57980  0.22386  0.16416  Biso   1.000  C 
  C212     1.0000 0.61624  0.18054  0.17696  Biso   1.000  C 
  C213     1.0000 0.66950  0.19863  0.18795  Biso   1.000  C 
  C214     1.0000 0.61762  0.14876  0.12989  Biso   1.000  C 
  C215     1.0000 0.60009  0.14869  0.22107  Biso   1.000  C 
  H506     1.0000 0.64707  0.12111  0.13194  Biso   1.000  H 
  H507     1.0000 0.62543  0.16763  0.09429  Biso   1.000  H 
  H508     1.0000 0.58167  0.12786  0.12830  Biso   1.000  H 
  H509     1.0000 0.68532  0.22224  0.15701  Biso   1.000  H 
  H510     1.0000 0.69381  0.16603  0.19558  Biso   1.000  H 
  H511     1.0000 0.66810  0.22153  0.22277  Biso   1.000  H 
  H512     1.0000 0.59459  0.16804  0.25768  Biso   1.000  H 
  H513     1.0000 0.63054  0.12149  0.22896  Biso   1.000  H 
  H514     1.0000 0.56740  0.12547  0.20958  Biso   1.000  H 
  H515     1.0000 0.58818  0.25161  0.19385  Biso   1.000  H 
  H516     1.0000 0.58818  0.24343  0.12826  Biso   1.000  H 
  C216     1.0000 0.49777  0.31521  0.38636  Biso   1.000  C 
  H517     1.0000 0.55319  0.29300  0.34089  Biso   1.000  H 
  H518     1.0000 0.50896  0.29186  0.41914  Biso   1.000  H 
  C217     1.0000 0.44144  0.33037  0.39351  Biso   1.000  C 
  H519     1.0000 0.51946  0.34994  0.39003  Biso   1.000  H 
  C218     1.0000 0.40554  0.28431  0.40329  Biso   1.000  C 
  C219     1.0000 0.42441  0.36143  0.34815  Biso   1.000  C 
  C220     1.0000 0.43964  0.36333  0.44227  Biso   1.000  C 
  H520     1.0000 0.39504  0.26544  0.36804  Biso   1.000  H 
  H521     1.0000 0.37176  0.29569  0.42171  Biso   1.000  H 
  H522     1.0000 0.41988  0.25671  0.43006  Biso   1.000  H 
  H523     1.0000 0.45327  0.34256  0.47441  Biso   1.000  H 
  H524     1.0000 0.40150  0.37301  0.45693  Biso   1.000  H 
  H525     1.0000 0.46088  0.39964  0.43913  Biso   1.000  H 
  H526     1.0000 0.41908  0.33450  0.31792  Biso   1.000  H 
  H527     1.0000 0.45593  0.38782  0.33732  Biso   1.000  H 
  H528     1.0000 0.38994  0.38338  0.35514  Biso   1.000  H 
  B585     1.0000 0.50000  0.92810  0.36740  Biso   1.000  B 
  B586     1.0000 0.50000  0.88280  0.38280  Biso   1.000  B 
  B587     1.0000 0.50000  0.86740  0.42810  Biso   1.000  B 
  B588     1.0000 0.50000  0.84350  0.34350  Biso   1.000  B 
  B589     1.0000 0.50000  0.85530  0.29420  Biso   1.000  B 
  B590     1.0000 0.50000  0.79420  0.35530  Biso   1.000  B 
  B591     1.0000 0.50000  0.82050  0.25800  Biso   1.000  B 
  B592     1.0000 0.50000  0.88860  0.28510  Biso   1.000  B 
  B593     1.0000 0.50000  0.75800  0.32050  Biso   1.000  B 
  B594     1.0000 0.50000  0.78510  0.38860  Biso   1.000  B 
  B595     1.0000 0.50000  0.76930  0.26930  Biso   1.000  B 
  B596     1.0000 0.50000  0.73070  0.23070  Biso   1.000  B 
  B597     1.0000 0.50000  0.83050  0.22490  Biso   1.000  B 
  B598     1.0000 0.50000  0.74200  0.17950  Biso   1.000  B 
  N45      1.0000 0.48573  0.70631  0.33937  Biso   1.000  N 
  B599     1.0000 0.50000  0.67950  0.24200  Biso   1.000  B 
  B600     1.0000 0.50000  0.70580  0.14470  Biso   1.000  B 
  N46      1.0000 0.47413  0.78926  0.16414  Biso   1.000  N 
  B601     1.0000 0.50000  0.64470  0.20580  Biso   1.000  B 
  B602     1.0000 0.50000  0.66950  0.27510  Biso   1.000  B 
  B603     1.0000 0.50000  0.65650  0.15650  Biso   1.000  B 
  B604     1.0000 0.50000  0.61720  0.11720  Biso   1.000  B 
  B605     1.0000 0.50000  0.71490  0.11140  Biso   1.000  B 
  B606     1.0000 0.50000  0.61140  0.21490  Biso   1.000  B 
  B607     1.0000 0.50000  0.63260  0.07190  Biso   1.000  B 
  B608     1.0000 0.50000  0.57190  0.13260  Biso   1.000  B 
  H529     1.0000 0.48679  0.80473  0.13110  Biso   1.000  H 
  C221     1.0000 0.42020  0.77614  0.16416  Biso   1.000  C 
  C222     1.0000 0.38376  0.81946  0.17696  Biso   1.000  C 
  C223     1.0000 0.33050  0.80137  0.18795  Biso   1.000  C 
  C224     1.0000 0.38238  0.85124  0.12989  Biso   1.000  C 
  C225     1.0000 0.39991  0.85131  0.22107  Biso   1.000  C 
  H530     1.0000 0.35293  0.87889  0.13194  Biso   1.000  H 
  H531     1.0000 0.37457  0.83237  0.09429  Biso   1.000  H 
  H532     1.0000 0.41833  0.87214  0.12830  Biso   1.000  H 
  H533     1.0000 0.31468  0.77776  0.15701  Biso   1.000  H 
  H534     1.0000 0.30620  0.83397  0.19558  Biso   1.000  H 
  H535     1.0000 0.33190  0.77847  0.22277  Biso   1.000  H 
  H536     1.0000 0.40541  0.83196  0.25768  Biso   1.000  H 
  H537     1.0000 0.36946  0.87851  0.22896  Biso   1.000  H 
  H538     1.0000 0.43260  0.87453  0.20958  Biso   1.000  H 
  H539     1.0000 0.41182  0.74839  0.19385  Biso   1.000  H 
  H540     1.0000 0.41182  0.75657  0.12826  Biso   1.000  H 
  C226     1.0000 0.50223  0.68479  0.38636  Biso   1.000  C 
  H541     1.0000 0.44681  0.70699  0.34089  Biso   1.000  H 
  H542     1.0000 0.49104  0.70814  0.41914  Biso   1.000  H 
  C227     1.0000 0.55856  0.66963  0.39351  Biso   1.000  C 
  H543     1.0000 0.48054  0.65006  0.39003  Biso   1.000  H 
  C228     1.0000 0.59446  0.71569  0.40329  Biso   1.000  C 
  C229     1.0000 0.57559  0.63857  0.34815  Biso   1.000  C 
  C230     1.0000 0.56036  0.63667  0.44227  Biso   1.000  C 
  H544     1.0000 0.60496  0.73456  0.36804  Biso   1.000  H 
  H545     1.0000 0.62823  0.70431  0.42171  Biso   1.000  H 
  H546     1.0000 0.58012  0.74329  0.43006  Biso   1.000  H 
  H547     1.0000 0.54673  0.65744  0.47441  Biso   1.000  H 
  H548     1.0000 0.59850  0.62699  0.45693  Biso   1.000  H 
  H549     1.0000 0.53912  0.60036  0.43913  Biso   1.000  H 
  H550     1.0000 0.58092  0.66550  0.31792  Biso   1.000  H 
  H551     1.0000 0.54407  0.61218  0.33732  Biso   1.000  H 
  H552     1.0000 0.61006  0.61662  0.35514  Biso   1.000  H 
  B609     1.0000 0.50000  0.92810  0.63260  Biso   1.000  B 
  B610     1.0000 0.50000  0.88280  0.61720  Biso   1.000  B 
  B611     1.0000 0.50000  0.86740  0.57190  Biso   1.000  B 
  B612     1.0000 0.50000  0.84350  0.65650  Biso   1.000  B 
  B613     1.0000 0.50000  0.85530  0.70580  Biso   1.000  B 
  B614     1.0000 0.50000  0.79420  0.64470  Biso   1.000  B 
  B615     1.0000 0.50000  0.82050  0.74200  Biso   1.000  B 
  B616     1.0000 0.50000  0.88860  0.71490  Biso   1.000  B 
  B617     1.0000 0.50000  0.75800  0.67950  Biso   1.000  B 
  B618     1.0000 0.50000  0.78510  0.61140  Biso   1.000  B 
  B619     1.0000 0.50000  0.76930  0.73070  Biso   1.000  B 
  B620     1.0000 0.50000  0.73070  0.76930  Biso   1.000  B 
  B621     1.0000 0.50000  0.83050  0.77510  Biso   1.000  B 
  B622     1.0000 0.50000  0.74200  0.82050  Biso   1.000  B 
  N47      1.0000 0.51427  0.70631  0.66063  Biso   1.000  N 
  B623     1.0000 0.50000  0.67950  0.75800  Biso   1.000  B 
  B624     1.0000 0.50000  0.70580  0.85530  Biso   1.000  B 
  N48      1.0000 0.52587  0.78926  0.83586  Biso   1.000  N 
  B625     1.0000 0.50000  0.64470  0.79420  Biso   1.000  B 
  B626     1.0000 0.50000  0.66950  0.72490  Biso   1.000  B 
  B627     1.0000 0.50000  0.65650  0.84350  Biso   1.000  B 
  B628     1.0000 0.50000  0.61720  0.88280  Biso   1.000  B 
  B629     1.0000 0.50000  0.71490  0.88860  Biso   1.000  B 
  B630     1.0000 0.50000  0.61140  0.78510  Biso   1.000  B 
  B631     1.0000 0.50000  0.63260  0.92810  Biso   1.000  B 
  B632     1.0000 0.50000  0.57190  0.86740  Biso   1.000  B 
  H553     1.0000 0.51321  0.80473  0.86890  Biso   1.000  H 
  C231     1.0000 0.57980  0.77614  0.83585  Biso   1.000  C 
  C232     1.0000 0.61624  0.81946  0.82304  Biso   1.000  C 
  C233     1.0000 0.66950  0.80137  0.81205  Biso   1.000  C 
  C234     1.0000 0.61762  0.85124  0.87011  Biso   1.000  C 
  C235     1.0000 0.60009  0.85131  0.77893  Biso   1.000  C 
  H554     1.0000 0.64707  0.87889  0.86806  Biso   1.000  H 
  H555     1.0000 0.62543  0.83237  0.90571  Biso   1.000  H 
  H556     1.0000 0.58167  0.87214  0.87170  Biso   1.000  H 
  H557     1.0000 0.68532  0.77776  0.84299  Biso   1.000  H 
  H558     1.0000 0.69381  0.83397  0.80442  Biso   1.000  H 
  H559     1.0000 0.66810  0.77847  0.77723  Biso   1.000  H 
  H560     1.0000 0.59459  0.83196  0.74232  Biso   1.000  H 
  H561     1.0000 0.63054  0.87851  0.77104  Biso   1.000  H 
  H562     1.0000 0.56740  0.87453  0.79042  Biso   1.000  H 
  H563     1.0000 0.58818  0.74839  0.80615  Biso   1.000  H 
  H564     1.0000 0.58818  0.75657  0.87174  Biso   1.000  H 
  C236     1.0000 0.49777  0.68479  0.61364  Biso   1.000  C 
  H565     1.0000 0.55319  0.70699  0.65911  Biso   1.000  H 
  H566     1.0000 0.50896  0.70814  0.58086  Biso   1.000  H 
  C237     1.0000 0.44144  0.66963  0.60649  Biso   1.000  C 
  H567     1.0000 0.51946  0.65006  0.60997  Biso   1.000  H 
  C238     1.0000 0.40554  0.71569  0.59671  Biso   1.000  C 
  C239     1.0000 0.42441  0.63857  0.65185  Biso   1.000  C 
  C240     1.0000 0.43964  0.63667  0.55773  Biso   1.000  C 
  H568     1.0000 0.39504  0.73456  0.63196  Biso   1.000  H 
  H569     1.0000 0.37176  0.70431  0.57829  Biso   1.000  H 
  H570     1.0000 0.41988  0.74329  0.56994  Biso   1.000  H 
  H571     1.0000 0.45327  0.65744  0.52559  Biso   1.000  H 
  H572     1.0000 0.40150  0.62699  0.54307  Biso   1.000  H 
  H573     1.0000 0.46088  0.60036  0.56087  Biso   1.000  H 
  H574     1.0000 0.41908  0.66550  0.68208  Biso   1.000  H 
  H575     1.0000 0.45593  0.61218  0.66268  Biso   1.000  H 
  H576     1.0000 0.38994  0.61662  0.64486  Biso   1.000  H 
