data_image0
_cell_length_a       26.896
_cell_length_b       26.896
_cell_length_c       26.896
_cell_angle_alpha    90
_cell_angle_beta     90
_cell_angle_gamma    90

_symmetry_space_group_name_H-M    "P 1"
_symmetry_int_tables_number       1

loop_
  _symmetry_equiv_pos_as_xyz
  'x, y, z'

loop_
  _atom_site_label
  _atom_site_occupancy
  _atom_site_fract_x
  _atom_site_fract_y
  _atom_site_fract_z
  _atom_site_thermal_displace_type
  _atom_site_B_iso_or_equiv
  _atom_site_type_symbol
  B1       1.0000 0.09204  0.00000  0.00000  Biso   1.000  B 
  B2       1.0000 0.90796  0.00000  0.00000  Biso   1.000  B 
  B3       1.0000 0.00000  0.09204  0.00000  Biso   1.000  B 
  B4       1.0000 0.00000  0.90796  0.00000  Biso   1.000  B 
  B5       1.0000 0.00000  0.00000  0.09204  Biso   1.000  B 
  B6       1.0000 0.00000  0.00000  0.90796  Biso   1.000  B 
  B7       1.0000 0.09204  0.50000  0.50000  Biso   1.000  B 
  B8       1.0000 0.90796  0.50000  0.50000  Biso   1.000  B 
  B9       1.0000 0.00000  0.59204  0.50000  Biso   1.000  B 
  B10      1.0000 0.00000  0.40796  0.50000  Biso   1.000  B 
  B11      1.0000 0.00000  0.50000  0.59204  Biso   1.000  B 
  B12      1.0000 0.00000  0.50000  0.40796  Biso   1.000  B 
  B13      1.0000 0.59204  0.00000  0.50000  Biso   1.000  B 
  B14      1.0000 0.40796  0.00000  0.50000  Biso   1.000  B 
  B15      1.0000 0.50000  0.09204  0.50000  Biso   1.000  B 
  B16      1.0000 0.50000  0.90796  0.50000  Biso   1.000  B 
  B17      1.0000 0.50000  0.00000  0.59204  Biso   1.000  B 
  B18      1.0000 0.50000  0.00000  0.40796  Biso   1.000  B 
  B19      1.0000 0.59204  0.50000  0.00000  Biso   1.000  B 
  B20      1.0000 0.40796  0.50000  0.00000  Biso   1.000  B 
  B21      1.0000 0.50000  0.59204  0.00000  Biso   1.000  B 
  B22      1.0000 0.50000  0.40796  0.00000  Biso   1.000  B 
  B23      1.0000 0.50000  0.50000  0.09204  Biso   1.000  B 
  B24      1.0000 0.50000  0.50000  0.90796  Biso   1.000  B 
  B25      1.0000 0.04540  0.04540  0.04540  Biso   1.000  B 
  B26      1.0000 0.95460  0.95460  0.04540  Biso   1.000  B 
  B27      1.0000 0.95460  0.04540  0.95460  Biso   1.000  B 
  B28      1.0000 0.04540  0.95460  0.95460  Biso   1.000  B 
  B29      1.0000 0.04540  0.04540  0.95460  Biso   1.000  B 
  B30      1.0000 0.95460  0.95460  0.95460  Biso   1.000  B 
  B31      1.0000 0.04540  0.95460  0.04540  Biso   1.000  B 
  B32      1.0000 0.95460  0.04540  0.04540  Biso   1.000  B 
  B33      1.0000 0.04540  0.54540  0.54540  Biso   1.000  B 
  B34      1.0000 0.95460  0.45460  0.54540  Biso   1.000  B 
  B35      1.0000 0.95460  0.54540  0.45460  Biso   1.000  B 
  B36      1.0000 0.04540  0.45460  0.45460  Biso   1.000  B 
  B37      1.0000 0.04540  0.54540  0.45460  Biso   1.000  B 
  B38      1.0000 0.95460  0.45460  0.45460  Biso   1.000  B 
  B39      1.0000 0.04540  0.45460  0.54540  Biso   1.000  B 
  B40      1.0000 0.95460  0.54540  0.54540  Biso   1.000  B 
  B41      1.0000 0.54540  0.04540  0.54540  Biso   1.000  B 
  B42      1.0000 0.45460  0.95460  0.54540  Biso   1.000  B 
  B43      1.0000 0.45460  0.04540  0.45460  Biso   1.000  B 
  B44      1.0000 0.54540  0.95460  0.45460  Biso   1.000  B 
  B45      1.0000 0.54540  0.04540  0.45460  Biso   1.000  B 
  B46      1.0000 0.45460  0.95460  0.45460  Biso   1.000  B 
  B47      1.0000 0.54540  0.95460  0.54540  Biso   1.000  B 
  B48      1.0000 0.45460  0.04540  0.54540  Biso   1.000  B 
  B49      1.0000 0.54540  0.54540  0.04540  Biso   1.000  B 
  B50      1.0000 0.45460  0.45460  0.04540  Biso   1.000  B 
  B51      1.0000 0.45460  0.54540  0.95460  Biso   1.000  B 
  B52      1.0000 0.54540  0.45460  0.95460  Biso   1.000  B 
  B53      1.0000 0.54540  0.54540  0.95460  Biso   1.000  B 
  B54      1.0000 0.45460  0.45460  0.95460  Biso   1.000  B 
  B55      1.0000 0.54540  0.45460  0.04540  Biso   1.000  B 
  B56      1.0000 0.45460  0.54540  0.04540  Biso   1.000  B 
  B57      1.0000 0.13260  0.00000  0.07190  Biso   1.000  B 
  B58      1.0000 0.11720  0.00000  0.11720  Biso   1.000  B 
  B59      1.0000 0.07190  0.00000  0.13260  Biso   1.000  B 
  B60      1.0000 0.15650  0.00000  0.15650  Biso   1.000  B 
  B61      1.0000 0.20580  0.00000  0.14470  Biso   1.000  B 
  B62      1.0000 0.14470  0.00000  0.20580  Biso   1.000  B 
  B63      1.0000 0.24200  0.00000  0.17950  Biso   1.000  B 
  B64      1.0000 0.21490  0.00000  0.11140  Biso   1.000  B 
  B65      1.0000 0.17950  0.00000  0.24200  Biso   1.000  B 
  B66      1.0000 0.11140  0.00000  0.21490  Biso   1.000  B 
  B67      1.0000 0.23070  0.00000  0.23070  Biso   1.000  B 
  B68      1.0000 0.26930  0.00000  0.26930  Biso   1.000  B 
  B69      1.0000 0.27510  0.00000  0.16950  Biso   1.000  B 
  B70      1.0000 0.32050  0.00000  0.25800  Biso   1.000  B 
  N1       1.0000 0.16061  0.01448  0.29238  Biso   1.000  N 
  B71      1.0000 0.25800  0.00000  0.32050  Biso   1.000  B 
  B72      1.0000 0.35530  0.00000  0.29420  Biso   1.000  B 
  N2       1.0000 0.34099  0.00120  0.20444  Biso   1.000  N 
  B73      1.0000 0.29420  0.00000  0.35530  Biso   1.000  B 
  B74      1.0000 0.22490  0.00000  0.33050  Biso   1.000  B 
  B75      1.0000 0.34350  0.00000  0.34350  Biso   1.000  B 
  B76      1.0000 0.38280  0.00000  0.38280  Biso   1.000  B 
  B77      1.0000 0.38860  0.00000  0.28510  Biso   1.000  B 
  B78      1.0000 0.28510  0.00000  0.38860  Biso   1.000  B 
  B79      1.0000 0.42810  0.00000  0.36740  Biso   1.000  B 
  B80      1.0000 0.36740  0.00000  0.42810  Biso   1.000  B 
  C1       1.0000 0.43133  0.99105  0.12694  Biso   1.000  C 
  C2       1.0000 0.35260  0.95068  0.18444  Biso   1.000  C 
  C3       1.0000 0.16493  0.09386  0.34009  Biso   1.000  C 
  C4       1.0000 0.13951  0.06547  0.29784  Biso   1.000  C 
  C5       1.0000 0.40591  0.93536  0.19963  Biso   1.000  C 
  C6       1.0000 0.44668  0.96809  0.17648  Biso   1.000  C 
  C7       1.0000 0.34533  0.94689  0.12516  Biso   1.000  C 
  C8       1.0000 0.38961  0.96772  0.09550  Biso   1.000  C 
  H1       1.0000 0.40447  0.94026  0.06902  Biso   1.000  H 
  H2       1.0000 0.37420  0.99855  0.07335  Biso   1.000  H 
  H3       1.0000 0.31083  0.96441  0.11015  Biso   1.000  H 
  H4       1.0000 0.34290  0.90659  0.11590  Biso   1.000  H 
  C9       1.0000 0.19676  0.15911  0.27969  Biso   1.000  C 
  C10      1.0000 0.17629  0.13038  0.23529  Biso   1.000  C 
  H5       1.0000 0.23061  0.17941  0.26777  Biso   1.000  H 
  C11      1.0000 0.21083  0.12374  0.32298  Biso   1.000  C 
  C12      1.0000 0.13058  0.10170  0.25235  Biso   1.000  C 
  H6       1.0000 0.22327  0.14788  0.35436  Biso   1.000  H 
  H7       1.0000 0.24201  0.09902  0.31183  Biso   1.000  H 
  H8       1.0000 0.42320  0.03146  0.13329  Biso   1.000  H 
  H9       1.0000 0.13416  0.98798  0.30325  Biso   1.000  H 
  H10      1.0000 0.36777  0.02936  0.19979  Biso   1.000  H 
  H11      1.0000 0.46301  0.98855  0.10014  Biso   1.000  H 
  H12      1.0000 0.20492  0.10486  0.22014  Biso   1.000  H 
  H13      1.0000 0.16498  0.15699  0.20548  Biso   1.000  H 
  H14      1.0000 0.11229  0.08375  0.22046  Biso   1.000  H 
  H15      1.0000 0.40970  0.89810  0.18544  Biso   1.000  H 
  H16      1.0000 0.41110  0.93276  0.23992  Biso   1.000  H 
  H17      1.0000 0.48092  0.94523  0.17357  Biso   1.000  H 
  H18      1.0000 0.13778  0.12056  0.35565  Biso   1.000  H 
  H19      1.0000 0.17608  0.06733  0.37019  Biso   1.000  H 
  H20      1.0000 0.10169  0.05908  0.31274  Biso   1.000  H 
  H21      1.0000 0.32880  0.92219  0.20250  Biso   1.000  H 
  H22      1.0000 0.45280  0.99954  0.20211  Biso   1.000  H 
  H23      1.0000 0.16848  0.18641  0.29277  Biso   1.000  H 
  H24      1.0000 0.10356  0.13007  0.26646  Biso   1.000  H 
  B81      1.0000 0.86740  0.00000  0.07190  Biso   1.000  B 
  B82      1.0000 0.88280  0.00000  0.11720  Biso   1.000  B 
  B83      1.0000 0.92810  0.00000  0.13260  Biso   1.000  B 
  B84      1.0000 0.84350  0.00000  0.15650  Biso   1.000  B 
  B85      1.0000 0.79420  0.00000  0.14470  Biso   1.000  B 
  B86      1.0000 0.85530  0.00000  0.20580  Biso   1.000  B 
  B87      1.0000 0.75800  0.00000  0.17950  Biso   1.000  B 
  B88      1.0000 0.78510  0.00000  0.11140  Biso   1.000  B 
  B89      1.0000 0.82050  0.00000  0.24200  Biso   1.000  B 
  B90      1.0000 0.88860  0.00000  0.21490  Biso   1.000  B 
  B91      1.0000 0.76930  0.00000  0.23070  Biso   1.000  B 
  B92      1.0000 0.73070  0.00000  0.26930  Biso   1.000  B 
  B93      1.0000 0.72490  0.00000  0.16950  Biso   1.000  B 
  B94      1.0000 0.67950  0.00000  0.25800  Biso   1.000  B 
  N3       1.0000 0.83939  0.98552  0.29238  Biso   1.000  N 
  B95      1.0000 0.74200  0.00000  0.32050  Biso   1.000  B 
  B96      1.0000 0.64470  0.00000  0.29420  Biso   1.000  B 
  N4       1.0000 0.65901  0.99880  0.20444  Biso   1.000  N 
  B97      1.0000 0.70580  0.00000  0.35530  Biso   1.000  B 
  B98      1.0000 0.77510  0.00000  0.33050  Biso   1.000  B 
  B99      1.0000 0.65650  0.00000  0.34350  Biso   1.000  B 
  B100     1.0000 0.61720  0.00000  0.38280  Biso   1.000  B 
  B101     1.0000 0.61140  0.00000  0.28510  Biso   1.000  B 
  B102     1.0000 0.71490  0.00000  0.38860  Biso   1.000  B 
  B103     1.0000 0.57190  0.00000  0.36740  Biso   1.000  B 
  B104     1.0000 0.63260  0.00000  0.42810  Biso   1.000  B 
  C13      1.0000 0.56867  0.00894  0.12694  Biso   1.000  C 
  C14      1.0000 0.64740  0.04932  0.18444  Biso   1.000  C 
  C15      1.0000 0.83507  0.90613  0.34009  Biso   1.000  C 
  C16      1.0000 0.86048  0.93453  0.29784  Biso   1.000  C 
  C17      1.0000 0.59409  0.06464  0.19963  Biso   1.000  C 
  C18      1.0000 0.55332  0.03191  0.17648  Biso   1.000  C 
  C19      1.0000 0.65467  0.05311  0.12516  Biso   1.000  C 
  C20      1.0000 0.61039  0.03228  0.09550  Biso   1.000  C 
  H25      1.0000 0.59553  0.05974  0.06902  Biso   1.000  H 
  H26      1.0000 0.62580  0.00145  0.07335  Biso   1.000  H 
  H27      1.0000 0.68917  0.03559  0.11015  Biso   1.000  H 
  H28      1.0000 0.65710  0.09341  0.11590  Biso   1.000  H 
  C21      1.0000 0.80324  0.84089  0.27969  Biso   1.000  C 
  C22      1.0000 0.82371  0.86962  0.23529  Biso   1.000  C 
  H29      1.0000 0.76939  0.82059  0.26777  Biso   1.000  H 
  C23      1.0000 0.78917  0.87626  0.32298  Biso   1.000  C 
  C24      1.0000 0.86942  0.89830  0.25235  Biso   1.000  C 
  H30      1.0000 0.77673  0.85212  0.35436  Biso   1.000  H 
  H31      1.0000 0.75799  0.90099  0.31183  Biso   1.000  H 
  H32      1.0000 0.57680  0.96854  0.13329  Biso   1.000  H 
  H33      1.0000 0.86584  0.01202  0.30325  Biso   1.000  H 
  H34      1.0000 0.63224  0.97064  0.19979  Biso   1.000  H 
  H35      1.0000 0.53699  0.01145  0.10014  Biso   1.000  H 
  H36      1.0000 0.79508  0.89514  0.22014  Biso   1.000  H 
  H37      1.0000 0.83502  0.84301  0.20548  Biso   1.000  H 
  H38      1.0000 0.88771  0.91625  0.22046  Biso   1.000  H 
  H39      1.0000 0.59030  0.10190  0.18544  Biso   1.000  H 
  H40      1.0000 0.58890  0.06724  0.23992  Biso   1.000  H 
  H41      1.0000 0.51908  0.05477  0.17357  Biso   1.000  H 
  H42      1.0000 0.86222  0.87944  0.35565  Biso   1.000  H 
  H43      1.0000 0.82393  0.93267  0.37019  Biso   1.000  H 
  H44      1.0000 0.89830  0.94092  0.31274  Biso   1.000  H 
  H45      1.0000 0.67120  0.07781  0.20250  Biso   1.000  H 
  H46      1.0000 0.54720  0.00046  0.20211  Biso   1.000  H 
  H47      1.0000 0.83152  0.81359  0.29277  Biso   1.000  H 
  H48      1.0000 0.89644  0.86993  0.26646  Biso   1.000  H 
  B105     1.0000 0.86740  0.00000  0.92810  Biso   1.000  B 
  B106     1.0000 0.88280  0.00000  0.88280  Biso   1.000  B 
  B107     1.0000 0.92810  0.00000  0.86740  Biso   1.000  B 
  B108     1.0000 0.84350  0.00000  0.84350  Biso   1.000  B 
  B109     1.0000 0.79420  0.00000  0.85530  Biso   1.000  B 
  B110     1.0000 0.85530  0.00000  0.79420  Biso   1.000  B 
  B111     1.0000 0.75800  0.00000  0.82050  Biso   1.000  B 
  B112     1.0000 0.78510  0.00000  0.88860  Biso   1.000  B 
  B113     1.0000 0.82050  0.00000  0.75800  Biso   1.000  B 
  B114     1.0000 0.88860  0.00000  0.78510  Biso   1.000  B 
  B115     1.0000 0.76930  0.00000  0.76930  Biso   1.000  B 
  B116     1.0000 0.73070  0.00000  0.73070  Biso   1.000  B 
  B117     1.0000 0.72490  0.00000  0.83050  Biso   1.000  B 
  B118     1.0000 0.67950  0.00000  0.74200  Biso   1.000  B 
  N5       1.0000 0.83939  0.01448  0.70762  Biso   1.000  N 
  B119     1.0000 0.74200  0.00000  0.67950  Biso   1.000  B 
  B120     1.0000 0.64470  0.00000  0.70580  Biso   1.000  B 
  N6       1.0000 0.65901  0.00120  0.79556  Biso   1.000  N 
  B121     1.0000 0.70580  0.00000  0.64470  Biso   1.000  B 
  B122     1.0000 0.77510  0.00000  0.66950  Biso   1.000  B 
  B123     1.0000 0.65650  0.00000  0.65650  Biso   1.000  B 
  B124     1.0000 0.61720  0.00000  0.61720  Biso   1.000  B 
  B125     1.0000 0.61140  0.00000  0.71490  Biso   1.000  B 
  B126     1.0000 0.71490  0.00000  0.61140  Biso   1.000  B 
  B127     1.0000 0.57190  0.00000  0.63260  Biso   1.000  B 
  B128     1.0000 0.63260  0.00000  0.57190  Biso   1.000  B 
  C25      1.0000 0.56867  0.99105  0.87306  Biso   1.000  C 
  C26      1.0000 0.64740  0.95068  0.81556  Biso   1.000  C 
  C27      1.0000 0.83507  0.09386  0.65992  Biso   1.000  C 
  C28      1.0000 0.86048  0.06547  0.70216  Biso   1.000  C 
  C29      1.0000 0.59409  0.93536  0.80037  Biso   1.000  C 
  C30      1.0000 0.55332  0.96809  0.82352  Biso   1.000  C 
  C31      1.0000 0.65467  0.94689  0.87484  Biso   1.000  C 
  C32      1.0000 0.61039  0.96772  0.90450  Biso   1.000  C 
  H49      1.0000 0.59553  0.94026  0.93098  Biso   1.000  H 
  H50      1.0000 0.62580  0.99855  0.92665  Biso   1.000  H 
  H51      1.0000 0.68917  0.96441  0.88985  Biso   1.000  H 
  H52      1.0000 0.65710  0.90659  0.88409  Biso   1.000  H 
  C33      1.0000 0.80324  0.15911  0.72031  Biso   1.000  C 
  C34      1.0000 0.82371  0.13038  0.76471  Biso   1.000  C 
  H53      1.0000 0.76939  0.17941  0.73223  Biso   1.000  H 
  C35      1.0000 0.78917  0.12374  0.67702  Biso   1.000  C 
  C36      1.0000 0.86942  0.10170  0.74765  Biso   1.000  C 
  H54      1.0000 0.77673  0.14788  0.64564  Biso   1.000  H 
  H55      1.0000 0.75799  0.09902  0.68817  Biso   1.000  H 
  H56      1.0000 0.57680  0.03146  0.86671  Biso   1.000  H 
  H57      1.0000 0.86584  0.98798  0.69675  Biso   1.000  H 
  H58      1.0000 0.63224  0.02936  0.80021  Biso   1.000  H 
  H59      1.0000 0.53699  0.98855  0.89986  Biso   1.000  H 
  H60      1.0000 0.79508  0.10486  0.77986  Biso   1.000  H 
  H61      1.0000 0.83502  0.15699  0.79452  Biso   1.000  H 
  H62      1.0000 0.88771  0.08375  0.77954  Biso   1.000  H 
  H63      1.0000 0.59030  0.89810  0.81456  Biso   1.000  H 
  H64      1.0000 0.58890  0.93276  0.76008  Biso   1.000  H 
  H65      1.0000 0.51908  0.94523  0.82643  Biso   1.000  H 
  H66      1.0000 0.86222  0.12056  0.64435  Biso   1.000  H 
  H67      1.0000 0.82393  0.06733  0.62981  Biso   1.000  H 
  H68      1.0000 0.89830  0.05908  0.68726  Biso   1.000  H 
  H69      1.0000 0.67120  0.92219  0.79750  Biso   1.000  H 
  H70      1.0000 0.54720  0.99954  0.79788  Biso   1.000  H 
  H71      1.0000 0.83152  0.18641  0.70723  Biso   1.000  H 
  H72      1.0000 0.89644  0.13007  0.73354  Biso   1.000  H 
  B129     1.0000 0.13260  0.00000  0.92810  Biso   1.000  B 
  B130     1.0000 0.11720  0.00000  0.88280  Biso   1.000  B 
  B131     1.0000 0.07190  0.00000  0.86740  Biso   1.000  B 
  B132     1.0000 0.15650  0.00000  0.84350  Biso   1.000  B 
  B133     1.0000 0.20580  0.00000  0.85530  Biso   1.000  B 
  B134     1.0000 0.14470  0.00000  0.79420  Biso   1.000  B 
  B135     1.0000 0.24200  0.00000  0.82050  Biso   1.000  B 
  B136     1.0000 0.21490  0.00000  0.88860  Biso   1.000  B 
  B137     1.0000 0.17950  0.00000  0.75800  Biso   1.000  B 
  B138     1.0000 0.11140  0.00000  0.78510  Biso   1.000  B 
  B139     1.0000 0.23070  0.00000  0.76930  Biso   1.000  B 
  B140     1.0000 0.26930  0.00000  0.73070  Biso   1.000  B 
  B141     1.0000 0.27510  0.00000  0.83050  Biso   1.000  B 
  B142     1.0000 0.32050  0.00000  0.74200  Biso   1.000  B 
  N7       1.0000 0.16061  0.98552  0.70762  Biso   1.000  N 
  B143     1.0000 0.25800  0.00000  0.67950  Biso   1.000  B 
  B144     1.0000 0.35530  0.00000  0.70580  Biso   1.000  B 
  N8       1.0000 0.34099  0.99880  0.79556  Biso   1.000  N 
  B145     1.0000 0.29420  0.00000  0.64470  Biso   1.000  B 
  B146     1.0000 0.22490  0.00000  0.66950  Biso   1.000  B 
  B147     1.0000 0.34350  0.00000  0.65650  Biso   1.000  B 
  B148     1.0000 0.38280  0.00000  0.61720  Biso   1.000  B 
  B149     1.0000 0.38860  0.00000  0.71490  Biso   1.000  B 
  B150     1.0000 0.28510  0.00000  0.61140  Biso   1.000  B 
  B151     1.0000 0.42810  0.00000  0.63260  Biso   1.000  B 
  B152     1.0000 0.36740  0.00000  0.57190  Biso   1.000  B 
  C37      1.0000 0.43133  0.00894  0.87306  Biso   1.000  C 
  C38      1.0000 0.35260  0.04932  0.81556  Biso   1.000  C 
  C39      1.0000 0.16493  0.90613  0.65992  Biso   1.000  C 
  C40      1.0000 0.13951  0.93453  0.70216  Biso   1.000  C 
  C41      1.0000 0.40591  0.06464  0.80037  Biso   1.000  C 
  C42      1.0000 0.44668  0.03191  0.82352  Biso   1.000  C 
  C43      1.0000 0.34533  0.05311  0.87484  Biso   1.000  C 
  C44      1.0000 0.38961  0.03228  0.90450  Biso   1.000  C 
  H73      1.0000 0.40447  0.05974  0.93098  Biso   1.000  H 
  H74      1.0000 0.37420  0.00145  0.92665  Biso   1.000  H 
  H75      1.0000 0.31083  0.03559  0.88985  Biso   1.000  H 
  H76      1.0000 0.34290  0.09341  0.88409  Biso   1.000  H 
  C45      1.0000 0.19676  0.84089  0.72031  Biso   1.000  C 
  C46      1.0000 0.17629  0.86962  0.76471  Biso   1.000  C 
  H77      1.0000 0.23061  0.82059  0.73223  Biso   1.000  H 
  C47      1.0000 0.21083  0.87626  0.67702  Biso   1.000  C 
  C48      1.0000 0.13058  0.89830  0.74765  Biso   1.000  C 
  H78      1.0000 0.22327  0.85212  0.64564  Biso   1.000  H 
  H79      1.0000 0.24201  0.90099  0.68817  Biso   1.000  H 
  H80      1.0000 0.42320  0.96854  0.86671  Biso   1.000  H 
  H81      1.0000 0.13416  0.01202  0.69675  Biso   1.000  H 
  H82      1.0000 0.36777  0.97064  0.80021  Biso   1.000  H 
  H83      1.0000 0.46301  0.01145  0.89986  Biso   1.000  H 
  H84      1.0000 0.20492  0.89514  0.77986  Biso   1.000  H 
  H85      1.0000 0.16498  0.84301  0.79452  Biso   1.000  H 
  H86      1.0000 0.11229  0.91625  0.77954  Biso   1.000  H 
  H87      1.0000 0.40970  0.10190  0.81456  Biso   1.000  H 
  H88      1.0000 0.41110  0.06724  0.76008  Biso   1.000  H 
  H89      1.0000 0.48092  0.05477  0.82643  Biso   1.000  H 
  H90      1.0000 0.13778  0.87944  0.64435  Biso   1.000  H 
  H91      1.0000 0.17608  0.93267  0.62981  Biso   1.000  H 
  H92      1.0000 0.10169  0.94092  0.68726  Biso   1.000  H 
  H93      1.0000 0.32880  0.07781  0.79750  Biso   1.000  H 
  H94      1.0000 0.45280  0.00046  0.79788  Biso   1.000  H 
  H95      1.0000 0.16848  0.81359  0.70723  Biso   1.000  H 
  H96      1.0000 0.10356  0.86993  0.73354  Biso   1.000  H 
  B153     1.0000 0.07190  0.13260  0.00000  Biso   1.000  B 
  B154     1.0000 0.11720  0.11720  0.00000  Biso   1.000  B 
  B155     1.0000 0.13260  0.07190  0.00000  Biso   1.000  B 
  B156     1.0000 0.15650  0.15650  0.00000  Biso   1.000  B 
  B157     1.0000 0.14470  0.20580  0.00000  Biso   1.000  B 
  B158     1.0000 0.20580  0.14470  0.00000  Biso   1.000  B 
  B159     1.0000 0.17950  0.24200  0.00000  Biso   1.000  B 
  B160     1.0000 0.11140  0.21490  0.00000  Biso   1.000  B 
  B161     1.0000 0.24200  0.17950  0.00000  Biso   1.000  B 
  B162     1.0000 0.21490  0.11140  0.00000  Biso   1.000  B 
  B163     1.0000 0.23070  0.23070  0.00000  Biso   1.000  B 
  B164     1.0000 0.26930  0.26930  0.00000  Biso   1.000  B 
  B165     1.0000 0.16950  0.27510  0.00000  Biso   1.000  B 
  B166     1.0000 0.25800  0.32050  0.00000  Biso   1.000  B 
  N9       1.0000 0.29278  0.16005  0.01528  Biso   1.000  N 
  B167     1.0000 0.32050  0.25800  0.00000  Biso   1.000  B 
  B168     1.0000 0.29420  0.35530  0.00000  Biso   1.000  B 
  N10      1.0000 0.20967  0.33878  0.97385  Biso   1.000  N 
  B169     1.0000 0.35530  0.29420  0.00000  Biso   1.000  B 
  B170     1.0000 0.33050  0.22490  0.00000  Biso   1.000  B 
  B171     1.0000 0.34350  0.34350  0.00000  Biso   1.000  B 
  B172     1.0000 0.38280  0.38280  0.00000  Biso   1.000  B 
  B173     1.0000 0.28510  0.38860  0.00000  Biso   1.000  B 
  B174     1.0000 0.38860  0.28510  0.00000  Biso   1.000  B 
  B175     1.0000 0.36740  0.42810  0.00000  Biso   1.000  B 
  B176     1.0000 0.42810  0.36740  0.00000  Biso   1.000  B 
  C49      1.0000 0.14203  0.44795  0.92523  Biso   1.000  C 
  C50      1.0000 0.21285  0.36221  0.92342  Biso   1.000  C 
  C51      1.0000 0.34708  0.11562  0.07367  Biso   1.000  C 
  C52      1.0000 0.29225  0.13082  0.06250  Biso   1.000  C 
  C53      1.0000 0.22812  0.41822  0.92414  Biso   1.000  C 
  C54      1.0000 0.19028  0.45078  0.95273  Biso   1.000  C 
  C55      1.0000 0.16092  0.35890  0.89961  Biso   1.000  C 
  C56      1.0000 0.12293  0.39393  0.92784  Biso   1.000  C 
  H97      1.0000 0.08693  0.39361  0.90879  Biso   1.000  H 
  H98      1.0000 0.11815  0.38453  0.96847  Biso   1.000  H 
  H99      1.0000 0.14770  0.32011  0.90386  Biso   1.000  H 
  H100     1.0000 0.16334  0.36679  0.85992  Biso   1.000  H 
  C57      1.0000 0.34818  0.16021  0.15386  Biso   1.000  C 
  C58      1.0000 0.29833  0.18528  0.14564  Biso   1.000  C 
  H101     1.0000 0.37106  0.18447  0.17814  Biso   1.000  H 
  C59      1.0000 0.37600  0.15380  0.10399  Biso   1.000  C 
  C60      1.0000 0.26466  0.15651  0.10845  Biso   1.000  C 
  H102     1.0000 0.41377  0.13863  0.11087  Biso   1.000  H 
  H103     1.0000 0.37983  0.19045  0.08488  Biso   1.000  H 
  H104     1.0000 0.11705  0.47399  0.94579  Biso   1.000  H 
  H105     1.0000 0.30441  0.13686  0.98617  Biso   1.000  H 
  H106     1.0000 0.18996  0.36031  0.99947  Biso   1.000  H 
  H107     1.0000 0.14642  0.46175  0.88615  Biso   1.000  H 
  H108     1.0000 0.30630  0.22276  0.13038  Biso   1.000  H 
  H109     1.0000 0.28011  0.19018  0.18184  Biso   1.000  H 
  H110     1.0000 0.23549  0.18281  0.09541  Biso   1.000  H 
  H111     1.0000 0.22846  0.42915  0.88497  Biso   1.000  H 
  H112     1.0000 0.26507  0.42564  0.93796  Biso   1.000  H 
  H113     1.0000 0.20339  0.48920  0.95338  Biso   1.000  H 
  H114     1.0000 0.34637  0.07975  0.09438  Biso   1.000  H 
  H115     1.0000 0.36788  0.11033  0.03792  Biso   1.000  H 
  H116     1.0000 0.27231  0.09524  0.05518  Biso   1.000  H 
  H117     1.0000 0.23869  0.33971  0.89987  Biso   1.000  H 
  H118     1.0000 0.18585  0.43907  0.99299  Biso   1.000  H 
  H119     1.0000 0.34374  0.12472  0.17357  Biso   1.000  H 
  H120     1.0000 0.24502  0.12682  0.12904  Biso   1.000  H 
  B177     1.0000 0.07190  0.86740  0.00000  Biso   1.000  B 
  B178     1.0000 0.11720  0.88280  0.00000  Biso   1.000  B 
  B179     1.0000 0.13260  0.92810  0.00000  Biso   1.000  B 
  B180     1.0000 0.15650  0.84350  0.00000  Biso   1.000  B 
  B181     1.0000 0.14470  0.79420  0.00000  Biso   1.000  B 
  B182     1.0000 0.20580  0.85530  0.00000  Biso   1.000  B 
  B183     1.0000 0.17950  0.75800  0.00000  Biso   1.000  B 
  B184     1.0000 0.11140  0.78510  0.00000  Biso   1.000  B 
  B185     1.0000 0.24200  0.82050  0.00000  Biso   1.000  B 
  B186     1.0000 0.21490  0.88860  0.00000  Biso   1.000  B 
  B187     1.0000 0.23070  0.76930  0.00000  Biso   1.000  B 
  B188     1.0000 0.26930  0.73070  0.00000  Biso   1.000  B 
  B189     1.0000 0.16950  0.72490  0.00000  Biso   1.000  B 
  B190     1.0000 0.25800  0.67950  0.00000  Biso   1.000  B 
  N11      1.0000 0.29278  0.83995  0.98472  Biso   1.000  N 
  B191     1.0000 0.32050  0.74200  0.00000  Biso   1.000  B 
  B192     1.0000 0.29420  0.64470  0.00000  Biso   1.000  B 
  N12      1.0000 0.20967  0.66122  0.02614  Biso   1.000  N 
  B193     1.0000 0.35530  0.70580  0.00000  Biso   1.000  B 
  B194     1.0000 0.33050  0.77510  0.00000  Biso   1.000  B 
  B195     1.0000 0.34350  0.65650  0.00000  Biso   1.000  B 
  B196     1.0000 0.38280  0.61720  0.00000  Biso   1.000  B 
  B197     1.0000 0.28510  0.61140  0.00000  Biso   1.000  B 
  B198     1.0000 0.38860  0.71490  0.00000  Biso   1.000  B 
  B199     1.0000 0.36740  0.57190  0.00000  Biso   1.000  B 
  B200     1.0000 0.42810  0.63260  0.00000  Biso   1.000  B 
  C61      1.0000 0.14203  0.55205  0.07477  Biso   1.000  C 
  C62      1.0000 0.21285  0.63779  0.07658  Biso   1.000  C 
  C63      1.0000 0.34708  0.88438  0.92633  Biso   1.000  C 
  C64      1.0000 0.29225  0.86918  0.93750  Biso   1.000  C 
  C65      1.0000 0.22812  0.58178  0.07586  Biso   1.000  C 
  C66      1.0000 0.19028  0.54922  0.04727  Biso   1.000  C 
  C67      1.0000 0.16092  0.64110  0.10039  Biso   1.000  C 
  C68      1.0000 0.12293  0.60607  0.07215  Biso   1.000  C 
  H121     1.0000 0.08693  0.60639  0.09121  Biso   1.000  H 
  H122     1.0000 0.11815  0.61547  0.03152  Biso   1.000  H 
  H123     1.0000 0.14770  0.67989  0.09614  Biso   1.000  H 
  H124     1.0000 0.16334  0.63321  0.14008  Biso   1.000  H 
  C69      1.0000 0.34818  0.83979  0.84614  Biso   1.000  C 
  C70      1.0000 0.29833  0.81472  0.85436  Biso   1.000  C 
  H125     1.0000 0.37106  0.81553  0.82186  Biso   1.000  H 
  C71      1.0000 0.37600  0.84620  0.89601  Biso   1.000  C 
  C72      1.0000 0.26466  0.84349  0.89155  Biso   1.000  C 
  H126     1.0000 0.41377  0.86137  0.88914  Biso   1.000  H 
  H127     1.0000 0.37983  0.80956  0.91512  Biso   1.000  H 
  H128     1.0000 0.11705  0.52601  0.05421  Biso   1.000  H 
  H129     1.0000 0.30441  0.86314  0.01383  Biso   1.000  H 
  H130     1.0000 0.18996  0.63969  0.00053  Biso   1.000  H 
  H131     1.0000 0.14642  0.53825  0.11385  Biso   1.000  H 
  H132     1.0000 0.30630  0.77724  0.86962  Biso   1.000  H 
  H133     1.0000 0.28011  0.80982  0.81816  Biso   1.000  H 
  H134     1.0000 0.23549  0.81719  0.90459  Biso   1.000  H 
  H135     1.0000 0.22846  0.57085  0.11503  Biso   1.000  H 
  H136     1.0000 0.26507  0.57436  0.06204  Biso   1.000  H 
  H137     1.0000 0.20339  0.51080  0.04662  Biso   1.000  H 
  H138     1.0000 0.34637  0.92025  0.90562  Biso   1.000  H 
  H139     1.0000 0.36788  0.88967  0.96208  Biso   1.000  H 
  H140     1.0000 0.27231  0.90476  0.94482  Biso   1.000  H 
  H141     1.0000 0.23869  0.66030  0.10013  Biso   1.000  H 
  H142     1.0000 0.18585  0.56093  0.00701  Biso   1.000  H 
  H143     1.0000 0.34374  0.87528  0.82643  Biso   1.000  H 
  H144     1.0000 0.24502  0.87319  0.87096  Biso   1.000  H 
  B201     1.0000 0.92810  0.86740  0.00000  Biso   1.000  B 
  B202     1.0000 0.88280  0.88280  0.00000  Biso   1.000  B 
  B203     1.0000 0.86740  0.92810  0.00000  Biso   1.000  B 
  B204     1.0000 0.84350  0.84350  0.00000  Biso   1.000  B 
  B205     1.0000 0.85530  0.79420  0.00000  Biso   1.000  B 
  B206     1.0000 0.79420  0.85530  0.00000  Biso   1.000  B 
  B207     1.0000 0.82050  0.75800  0.00000  Biso   1.000  B 
  B208     1.0000 0.88860  0.78510  0.00000  Biso   1.000  B 
  B209     1.0000 0.75800  0.82050  0.00000  Biso   1.000  B 
  B210     1.0000 0.78510  0.88860  0.00000  Biso   1.000  B 
  B211     1.0000 0.76930  0.76930  0.00000  Biso   1.000  B 
  B212     1.0000 0.73070  0.73070  0.00000  Biso   1.000  B 
  B213     1.0000 0.83050  0.72490  0.00000  Biso   1.000  B 
  B214     1.0000 0.74200  0.67950  0.00000  Biso   1.000  B 
  N13      1.0000 0.70722  0.83995  0.01528  Biso   1.000  N 
  B215     1.0000 0.67950  0.74200  0.00000  Biso   1.000  B 
  B216     1.0000 0.70580  0.64470  0.00000  Biso   1.000  B 
  N14      1.0000 0.79033  0.66122  0.97385  Biso   1.000  N 
  B217     1.0000 0.64470  0.70580  0.00000  Biso   1.000  B 
  B218     1.0000 0.66950  0.77510  0.00000  Biso   1.000  B 
  B219     1.0000 0.65650  0.65650  0.00000  Biso   1.000  B 
  B220     1.0000 0.61720  0.61720  0.00000  Biso   1.000  B 
  B221     1.0000 0.71490  0.61140  0.00000  Biso   1.000  B 
  B222     1.0000 0.61140  0.71490  0.00000  Biso   1.000  B 
  B223     1.0000 0.63260  0.57190  0.00000  Biso   1.000  B 
  B224     1.0000 0.57190  0.63260  0.00000  Biso   1.000  B 
  C73      1.0000 0.85797  0.55205  0.92523  Biso   1.000  C 
  C74      1.0000 0.78715  0.63779  0.92342  Biso   1.000  C 
  C75      1.0000 0.65292  0.88438  0.07367  Biso   1.000  C 
  C76      1.0000 0.70775  0.86918  0.06250  Biso   1.000  C 
  C77      1.0000 0.77188  0.58178  0.92414  Biso   1.000  C 
  C78      1.0000 0.80972  0.54922  0.95273  Biso   1.000  C 
  C79      1.0000 0.83908  0.64110  0.89961  Biso   1.000  C 
  C80      1.0000 0.87707  0.60607  0.92784  Biso   1.000  C 
  H145     1.0000 0.91307  0.60639  0.90879  Biso   1.000  H 
  H146     1.0000 0.88184  0.61547  0.96847  Biso   1.000  H 
  H147     1.0000 0.85229  0.67989  0.90386  Biso   1.000  H 
  H148     1.0000 0.83666  0.63321  0.85992  Biso   1.000  H 
  C81      1.0000 0.65182  0.83979  0.15386  Biso   1.000  C 
  C82      1.0000 0.70167  0.81472  0.14564  Biso   1.000  C 
  H149     1.0000 0.62894  0.81553  0.17814  Biso   1.000  H 
  C83      1.0000 0.62400  0.84620  0.10399  Biso   1.000  C 
  C84      1.0000 0.73534  0.84349  0.10845  Biso   1.000  C 
  H150     1.0000 0.58623  0.86137  0.11087  Biso   1.000  H 
  H151     1.0000 0.62017  0.80956  0.08488  Biso   1.000  H 
  H152     1.0000 0.88295  0.52601  0.94579  Biso   1.000  H 
  H153     1.0000 0.69559  0.86314  0.98617  Biso   1.000  H 
  H154     1.0000 0.81004  0.63969  0.99947  Biso   1.000  H 
  H155     1.0000 0.85358  0.53825  0.88615  Biso   1.000  H 
  H156     1.0000 0.69370  0.77724  0.13038  Biso   1.000  H 
  H157     1.0000 0.71989  0.80982  0.18184  Biso   1.000  H 
  H158     1.0000 0.76450  0.81719  0.09541  Biso   1.000  H 
  H159     1.0000 0.77154  0.57085  0.88497  Biso   1.000  H 
  H160     1.0000 0.73493  0.57436  0.93796  Biso   1.000  H 
  H161     1.0000 0.79661  0.51080  0.95338  Biso   1.000  H 
  H162     1.0000 0.65363  0.92025  0.09438  Biso   1.000  H 
  H163     1.0000 0.63212  0.88967  0.03792  Biso   1.000  H 
  H164     1.0000 0.72769  0.90476  0.05518  Biso   1.000  H 
  H165     1.0000 0.76131  0.66030  0.89987  Biso   1.000  H 
  H166     1.0000 0.81415  0.56093  0.99299  Biso   1.000  H 
  H167     1.0000 0.65626  0.87528  0.17357  Biso   1.000  H 
  H168     1.0000 0.75498  0.87319  0.12904  Biso   1.000  H 
  B225     1.0000 0.92810  0.13260  0.00000  Biso   1.000  B 
  B226     1.0000 0.88280  0.11720  0.00000  Biso   1.000  B 
  B227     1.0000 0.86740  0.07190  0.00000  Biso   1.000  B 
  B228     1.0000 0.84350  0.15650  0.00000  Biso   1.000  B 
  B229     1.0000 0.85530  0.20580  0.00000  Biso   1.000  B 
  B230     1.0000 0.79420  0.14470  0.00000  Biso   1.000  B 
  B231     1.0000 0.82050  0.24200  0.00000  Biso   1.000  B 
  B232     1.0000 0.88860  0.21490  0.00000  Biso   1.000  B 
  B233     1.0000 0.75800  0.17950  0.00000  Biso   1.000  B 
  B234     1.0000 0.78510  0.11140  0.00000  Biso   1.000  B 
  B235     1.0000 0.76930  0.23070  0.00000  Biso   1.000  B 
  B236     1.0000 0.73070  0.26930  0.00000  Biso   1.000  B 
  B237     1.0000 0.83050  0.27510  0.00000  Biso   1.000  B 
  B238     1.0000 0.74200  0.32050  0.00000  Biso   1.000  B 
  N15      1.0000 0.70722  0.16005  0.98472  Biso   1.000  N 
  B239     1.0000 0.67950  0.25800  0.00000  Biso   1.000  B 
  B240     1.0000 0.70580  0.35530  0.00000  Biso   1.000  B 
  N16      1.0000 0.79033  0.33878  0.02614  Biso   1.000  N 
  B241     1.0000 0.64470  0.29420  0.00000  Biso   1.000  B 
  B242     1.0000 0.66950  0.22490  0.00000  Biso   1.000  B 
  B243     1.0000 0.65650  0.34350  0.00000  Biso   1.000  B 
  B244     1.0000 0.61720  0.38280  0.00000  Biso   1.000  B 
  B245     1.0000 0.71490  0.38860  0.00000  Biso   1.000  B 
  B246     1.0000 0.61140  0.28510  0.00000  Biso   1.000  B 
  B247     1.0000 0.63260  0.42810  0.00000  Biso   1.000  B 
  B248     1.0000 0.57190  0.36740  0.00000  Biso   1.000  B 
  C85      1.0000 0.85797  0.44795  0.07477  Biso   1.000  C 
  C86      1.0000 0.78715  0.36221  0.07658  Biso   1.000  C 
  C87      1.0000 0.65292  0.11562  0.92633  Biso   1.000  C 
  C88      1.0000 0.70775  0.13082  0.93750  Biso   1.000  C 
  C89      1.0000 0.77188  0.41822  0.07586  Biso   1.000  C 
  C90      1.0000 0.80972  0.45078  0.04727  Biso   1.000  C 
  C91      1.0000 0.83908  0.35890  0.10039  Biso   1.000  C 
  C92      1.0000 0.87707  0.39393  0.07215  Biso   1.000  C 
  H169     1.0000 0.91307  0.39361  0.09121  Biso   1.000  H 
  H170     1.0000 0.88184  0.38453  0.03152  Biso   1.000  H 
  H171     1.0000 0.85229  0.32011  0.09614  Biso   1.000  H 
  H172     1.0000 0.83666  0.36679  0.14008  Biso   1.000  H 
  C93      1.0000 0.65182  0.16021  0.84614  Biso   1.000  C 
  C94      1.0000 0.70167  0.18528  0.85436  Biso   1.000  C 
  H173     1.0000 0.62894  0.18447  0.82186  Biso   1.000  H 
  C95      1.0000 0.62400  0.15380  0.89601  Biso   1.000  C 
  C96      1.0000 0.73534  0.15651  0.89155  Biso   1.000  C 
  H174     1.0000 0.58623  0.13863  0.88914  Biso   1.000  H 
  H175     1.0000 0.62017  0.19045  0.91512  Biso   1.000  H 
  H176     1.0000 0.88295  0.47399  0.05421  Biso   1.000  H 
  H177     1.0000 0.69559  0.13686  0.01383  Biso   1.000  H 
  H178     1.0000 0.81004  0.36031  0.00053  Biso   1.000  H 
  H179     1.0000 0.85358  0.46175  0.11385  Biso   1.000  H 
  H180     1.0000 0.69370  0.22276  0.86962  Biso   1.000  H 
  H181     1.0000 0.71989  0.19018  0.81816  Biso   1.000  H 
  H182     1.0000 0.76450  0.18281  0.90459  Biso   1.000  H 
  H183     1.0000 0.77154  0.42915  0.11503  Biso   1.000  H 
  H184     1.0000 0.73493  0.42564  0.06204  Biso   1.000  H 
  H185     1.0000 0.79661  0.48920  0.04662  Biso   1.000  H 
  H186     1.0000 0.65363  0.07975  0.90562  Biso   1.000  H 
  H187     1.0000 0.63212  0.11033  0.96208  Biso   1.000  H 
  H188     1.0000 0.72769  0.09524  0.94482  Biso   1.000  H 
  H189     1.0000 0.76131  0.33971  0.10013  Biso   1.000  H 
  H190     1.0000 0.81415  0.43907  0.00701  Biso   1.000  H 
  H191     1.0000 0.65626  0.12472  0.82643  Biso   1.000  H 
  H192     1.0000 0.75498  0.12682  0.87096  Biso   1.000  H 
  B249     1.0000 0.00000  0.07190  0.13260  Biso   1.000  B 
  B250     1.0000 0.00000  0.11720  0.11720  Biso   1.000  B 
  B251     1.0000 0.00000  0.13260  0.07190  Biso   1.000  B 
  B252     1.0000 0.00000  0.15650  0.15650  Biso   1.000  B 
  B253     1.0000 0.00000  0.14470  0.20580  Biso   1.000  B 
  B254     1.0000 0.00000  0.20580  0.14470  Biso   1.000  B 
  B255     1.0000 0.00000  0.17950  0.24200  Biso   1.000  B 
  B256     1.0000 0.00000  0.11140  0.21490  Biso   1.000  B 
  B257     1.0000 0.00000  0.24200  0.17950  Biso   1.000  B 
  B258     1.0000 0.00000  0.21490  0.11140  Biso   1.000  B 
  B259     1.0000 0.00000  0.23070  0.23070  Biso   1.000  B 
  B260     1.0000 0.00000  0.26930  0.26930  Biso   1.000  B 
  B261     1.0000 0.00000  0.16950  0.27510  Biso   1.000  B 
  B262     1.0000 0.00000  0.25800  0.32050  Biso   1.000  B 
  N17      1.0000 0.01106  0.29444  0.15685  Biso   1.000  N 
  B263     1.0000 0.00000  0.32050  0.25800  Biso   1.000  B 
  B264     1.0000 0.00000  0.29420  0.35530  Biso   1.000  B 
  N18      1.0000 0.00866  0.20466  0.34133  Biso   1.000  N 
  B265     1.0000 0.00000  0.35530  0.29420  Biso   1.000  B 
  B266     1.0000 0.00000  0.33050  0.22490  Biso   1.000  B 
  B267     1.0000 0.00000  0.34350  0.34350  Biso   1.000  B 
  B268     1.0000 0.00000  0.38280  0.38280  Biso   1.000  B 
  B269     1.0000 0.00000  0.28510  0.38860  Biso   1.000  B 
  B270     1.0000 0.00000  0.38860  0.28510  Biso   1.000  B 
  B271     1.0000 0.00000  0.36740  0.42810  Biso   1.000  B 
  B272     1.0000 0.00000  0.42810  0.36740  Biso   1.000  B 
  C97      1.0000 0.99373  0.10897  0.43861  Biso   1.000  C 
  C98      1.0000 0.96242  0.17492  0.35495  Biso   1.000  C 
  C99      1.0000 0.09342  0.30147  0.10445  Biso   1.000  C 
  C100     1.0000 0.06095  0.31786  0.14941  Biso   1.000  C 
  C101     1.0000 0.94453  0.18600  0.40734  Biso   1.000  C 
  C102     1.0000 0.97597  0.16274  0.44815  Biso   1.000  C 
  C103     1.0000 0.96730  0.11567  0.34814  Biso   1.000  C 
  C104     1.0000 0.00786  0.09820  0.38440  Biso   1.000  C 
  H193     1.0000 0.01691  0.05765  0.38093  Biso   1.000  H 
  H194     1.0000 0.04185  0.11999  0.37681  Biso   1.000  H 
  H195     1.0000 0.97880  0.10354  0.31055  Biso   1.000  H 
  H196     1.0000 0.93257  0.09584  0.35757  Biso   1.000  H 
  C105     1.0000 0.06788  0.37944  0.05398  Biso   1.000  C 
  C106     1.0000 0.03638  0.39413  0.09681  Biso   1.000  C 
  H197     1.0000 0.04822  0.39006  0.01831  Biso   1.000  H 
  C107     1.0000 0.08025  0.32296  0.05401  Biso   1.000  C 
  C108     1.0000 0.05480  0.37513  0.14597  Biso   1.000  C 
  H198     1.0000 0.11175  0.31783  0.02896  Biso   1.000  H 
  H199     1.0000 0.04882  0.30224  0.03778  Biso   1.000  H 
  H200     1.0000 0.02780  0.10113  0.46126  Biso   1.000  H 
  H201     1.0000 0.98162  0.30471  0.13234  Biso   1.000  H 
  H202     1.0000 0.03591  0.20420  0.36901  Biso   1.000  H 
  H203     1.0000 0.96331  0.08337  0.45038  Biso   1.000  H 
  H204     1.0000 0.99894  0.37764  0.08982  Biso   1.000  H 
  H205     1.0000 0.03335  0.43503  0.09769  Biso   1.000  H 
  H206     1.0000 0.03181  0.39087  0.17601  Biso   1.000  H 
  H207     1.0000 0.90677  0.17056  0.40849  Biso   1.000  H 
  H208     1.0000 0.94104  0.22616  0.41423  Biso   1.000  H 
  H209     1.0000 0.95313  0.16424  0.48240  Biso   1.000  H 
  H210     1.0000 0.13322  0.31390  0.11093  Biso   1.000  H 
  H211     1.0000 0.09299  0.25961  0.10399  Biso   1.000  H 
  H212     1.0000 0.08279  0.31064  0.18395  Biso   1.000  H 
  H213     1.0000 0.93203  0.18822  0.33020  Biso   1.000  H 
  H214     1.0000 0.00940  0.18758  0.45257  Biso   1.000  H 
  H215     1.0000 0.10399  0.40161  0.05652  Biso   1.000  H 
  H216     1.0000 0.09056  0.39292  0.14641  Biso   1.000  H 
  B273     1.0000 0.00000  0.07190  0.86740  Biso   1.000  B 
  B274     1.0000 0.00000  0.11720  0.88280  Biso   1.000  B 
  B275     1.0000 0.00000  0.13260  0.92810  Biso   1.000  B 
  B276     1.0000 0.00000  0.15650  0.84350  Biso   1.000  B 
  B277     1.0000 0.00000  0.14470  0.79420  Biso   1.000  B 
  B278     1.0000 0.00000  0.20580  0.85530  Biso   1.000  B 
  B279     1.0000 0.00000  0.17950  0.75800  Biso   1.000  B 
  B280     1.0000 0.00000  0.11140  0.78510  Biso   1.000  B 
  B281     1.0000 0.00000  0.24200  0.82050  Biso   1.000  B 
  B282     1.0000 0.00000  0.21490  0.88860  Biso   1.000  B 
  B283     1.0000 0.00000  0.23070  0.76930  Biso   1.000  B 
  B284     1.0000 0.00000  0.26930  0.73070  Biso   1.000  B 
  B285     1.0000 0.00000  0.16950  0.72490  Biso   1.000  B 
  B286     1.0000 0.00000  0.25800  0.67950  Biso   1.000  B 
  N19      1.0000 0.98894  0.29444  0.84315  Biso   1.000  N 
  B287     1.0000 0.00000  0.32050  0.74200  Biso   1.000  B 
  B288     1.0000 0.00000  0.29420  0.64470  Biso   1.000  B 
  N20      1.0000 0.99134  0.20466  0.65867  Biso   1.000  N 
  B289     1.0000 0.00000  0.35530  0.70580  Biso   1.000  B 
  B290     1.0000 0.00000  0.33050  0.77510  Biso   1.000  B 
  B291     1.0000 0.00000  0.34350  0.65650  Biso   1.000  B 
  B292     1.0000 0.00000  0.38280  0.61720  Biso   1.000  B 
  B293     1.0000 0.00000  0.28510  0.61140  Biso   1.000  B 
  B294     1.0000 0.00000  0.38860  0.71490  Biso   1.000  B 
  B295     1.0000 0.00000  0.36740  0.57190  Biso   1.000  B 
  B296     1.0000 0.00000  0.42810  0.63260  Biso   1.000  B 
  C109     1.0000 0.00627  0.10897  0.56139  Biso   1.000  C 
  C110     1.0000 0.03758  0.17492  0.64506  Biso   1.000  C 
  C111     1.0000 0.90658  0.30147  0.89555  Biso   1.000  C 
  C112     1.0000 0.93905  0.31786  0.85059  Biso   1.000  C 
  C113     1.0000 0.05547  0.18600  0.59266  Biso   1.000  C 
  C114     1.0000 0.02403  0.16274  0.55185  Biso   1.000  C 
  C115     1.0000 0.03270  0.11567  0.65186  Biso   1.000  C 
  C116     1.0000 0.99214  0.09820  0.61560  Biso   1.000  C 
  H217     1.0000 0.98309  0.05765  0.61907  Biso   1.000  H 
  H218     1.0000 0.95815  0.11999  0.62319  Biso   1.000  H 
  H219     1.0000 0.02120  0.10354  0.68944  Biso   1.000  H 
  H220     1.0000 0.06742  0.09584  0.64243  Biso   1.000  H 
  C117     1.0000 0.93212  0.37944  0.94602  Biso   1.000  C 
  C118     1.0000 0.96362  0.39413  0.90319  Biso   1.000  C 
  H221     1.0000 0.95178  0.39006  0.98169  Biso   1.000  H 
  C119     1.0000 0.91975  0.32296  0.94598  Biso   1.000  C 
  C120     1.0000 0.94520  0.37513  0.85403  Biso   1.000  C 
  H222     1.0000 0.88825  0.31783  0.97104  Biso   1.000  H 
  H223     1.0000 0.95118  0.30224  0.96222  Biso   1.000  H 
  H224     1.0000 0.97220  0.10113  0.53874  Biso   1.000  H 
  H225     1.0000 0.01838  0.30471  0.86766  Biso   1.000  H 
  H226     1.0000 0.96409  0.20420  0.63099  Biso   1.000  H 
  H227     1.0000 0.03669  0.08337  0.54962  Biso   1.000  H 
  H228     1.0000 0.00106  0.37764  0.91018  Biso   1.000  H 
  H229     1.0000 0.96665  0.43503  0.90231  Biso   1.000  H 
  H230     1.0000 0.96819  0.39087  0.82399  Biso   1.000  H 
  H231     1.0000 0.09323  0.17056  0.59151  Biso   1.000  H 
  H232     1.0000 0.05896  0.22616  0.58577  Biso   1.000  H 
  H233     1.0000 0.04686  0.16424  0.51760  Biso   1.000  H 
  H234     1.0000 0.86678  0.31390  0.88907  Biso   1.000  H 
  H235     1.0000 0.90700  0.25961  0.89601  Biso   1.000  H 
  H236     1.0000 0.91721  0.31064  0.81605  Biso   1.000  H 
  H237     1.0000 0.06797  0.18822  0.66979  Biso   1.000  H 
  H238     1.0000 0.99060  0.18758  0.54743  Biso   1.000  H 
  H239     1.0000 0.89601  0.40161  0.94348  Biso   1.000  H 
  H240     1.0000 0.90944  0.39292  0.85359  Biso   1.000  H 
  B297     1.0000 0.00000  0.92810  0.86740  Biso   1.000  B 
  B298     1.0000 0.00000  0.88280  0.88280  Biso   1.000  B 
  B299     1.0000 0.00000  0.86740  0.92810  Biso   1.000  B 
  B300     1.0000 0.00000  0.84350  0.84350  Biso   1.000  B 
  B301     1.0000 0.00000  0.85530  0.79420  Biso   1.000  B 
  B302     1.0000 0.00000  0.79420  0.85530  Biso   1.000  B 
  B303     1.0000 0.00000  0.82050  0.75800  Biso   1.000  B 
  B304     1.0000 0.00000  0.88860  0.78510  Biso   1.000  B 
  B305     1.0000 0.00000  0.75800  0.82050  Biso   1.000  B 
  B306     1.0000 0.00000  0.78510  0.88860  Biso   1.000  B 
  B307     1.0000 0.00000  0.76930  0.76930  Biso   1.000  B 
  B308     1.0000 0.00000  0.73070  0.73070  Biso   1.000  B 
  B309     1.0000 0.00000  0.83050  0.72490  Biso   1.000  B 
  B310     1.0000 0.00000  0.74200  0.67950  Biso   1.000  B 
  N21      1.0000 0.01106  0.70556  0.84315  Biso   1.000  N 
  B311     1.0000 0.00000  0.67950  0.74200  Biso   1.000  B 
  B312     1.0000 0.00000  0.70580  0.64470  Biso   1.000  B 
  N22      1.0000 0.00866  0.79533  0.65867  Biso   1.000  N 
  B313     1.0000 0.00000  0.64470  0.70580  Biso   1.000  B 
  B314     1.0000 0.00000  0.66950  0.77510  Biso   1.000  B 
  B315     1.0000 0.00000  0.65650  0.65650  Biso   1.000  B 
  B316     1.0000 0.00000  0.61720  0.61720  Biso   1.000  B 
  B317     1.0000 0.00000  0.71490  0.61140  Biso   1.000  B 
  B318     1.0000 0.00000  0.61140  0.71490  Biso   1.000  B 
  B319     1.0000 0.00000  0.63260  0.57190  Biso   1.000  B 
  B320     1.0000 0.00000  0.57190  0.63260  Biso   1.000  B 
  C121     1.0000 0.99373  0.89103  0.56139  Biso   1.000  C 
  C122     1.0000 0.96242  0.82508  0.64506  Biso   1.000  C 
  C123     1.0000 0.09342  0.69854  0.89555  Biso   1.000  C 
  C124     1.0000 0.06095  0.68214  0.85059  Biso   1.000  C 
  C125     1.0000 0.94453  0.81400  0.59266  Biso   1.000  C 
  C126     1.0000 0.97597  0.83725  0.55185  Biso   1.000  C 
  C127     1.0000 0.96730  0.88433  0.65186  Biso   1.000  C 
  C128     1.0000 0.00786  0.90180  0.61560  Biso   1.000  C 
  H241     1.0000 0.01691  0.94234  0.61907  Biso   1.000  H 
  H242     1.0000 0.04185  0.88001  0.62319  Biso   1.000  H 
  H243     1.0000 0.97880  0.89646  0.68944  Biso   1.000  H 
  H244     1.0000 0.93257  0.90416  0.64243  Biso   1.000  H 
  C129     1.0000 0.06788  0.62056  0.94602  Biso   1.000  C 
  C130     1.0000 0.03638  0.60587  0.90319  Biso   1.000  C 
  H245     1.0000 0.04822  0.60994  0.98169  Biso   1.000  H 
  C131     1.0000 0.08025  0.67704  0.94598  Biso   1.000  C 
  C132     1.0000 0.05480  0.62487  0.85403  Biso   1.000  C 
  H246     1.0000 0.11175  0.68217  0.97104  Biso   1.000  H 
  H247     1.0000 0.04882  0.69776  0.96222  Biso   1.000  H 
  H248     1.0000 0.02780  0.89887  0.53874  Biso   1.000  H 
  H249     1.0000 0.98162  0.69529  0.86766  Biso   1.000  H 
  H250     1.0000 0.03591  0.79579  0.63099  Biso   1.000  H 
  H251     1.0000 0.96331  0.91663  0.54962  Biso   1.000  H 
  H252     1.0000 0.99894  0.62236  0.91018  Biso   1.000  H 
  H253     1.0000 0.03335  0.56497  0.90231  Biso   1.000  H 
  H254     1.0000 0.03181  0.60913  0.82399  Biso   1.000  H 
  H255     1.0000 0.90677  0.82944  0.59151  Biso   1.000  H 
  H256     1.0000 0.94104  0.77384  0.58577  Biso   1.000  H 
  H257     1.0000 0.95313  0.83576  0.51760  Biso   1.000  H 
  H258     1.0000 0.13322  0.68610  0.88907  Biso   1.000  H 
  H259     1.0000 0.09299  0.74039  0.89601  Biso   1.000  H 
  H260     1.0000 0.08279  0.68936  0.81605  Biso   1.000  H 
  H261     1.0000 0.93203  0.81178  0.66979  Biso   1.000  H 
  H262     1.0000 0.00940  0.81242  0.54743  Biso   1.000  H 
  H263     1.0000 0.10399  0.59839  0.94348  Biso   1.000  H 
  H264     1.0000 0.09056  0.60708  0.85359  Biso   1.000  H 
  B321     1.0000 0.00000  0.92810  0.13260  Biso   1.000  B 
  B322     1.0000 0.00000  0.88280  0.11720  Biso   1.000  B 
  B323     1.0000 0.00000  0.86740  0.07190  Biso   1.000  B 
  B324     1.0000 0.00000  0.84350  0.15650  Biso   1.000  B 
  B325     1.0000 0.00000  0.85530  0.20580  Biso   1.000  B 
  B326     1.0000 0.00000  0.79420  0.14470  Biso   1.000  B 
  B327     1.0000 0.00000  0.82050  0.24200  Biso   1.000  B 
  B328     1.0000 0.00000  0.88860  0.21490  Biso   1.000  B 
  B329     1.0000 0.00000  0.75800  0.17950  Biso   1.000  B 
  B330     1.0000 0.00000  0.78510  0.11140  Biso   1.000  B 
  B331     1.0000 0.00000  0.76930  0.23070  Biso   1.000  B 
  B332     1.0000 0.00000  0.73070  0.26930  Biso   1.000  B 
  B333     1.0000 0.00000  0.83050  0.27510  Biso   1.000  B 
  B334     1.0000 0.00000  0.74200  0.32050  Biso   1.000  B 
  N23      1.0000 0.98894  0.70556  0.15685  Biso   1.000  N 
  B335     1.0000 0.00000  0.67950  0.25800  Biso   1.000  B 
  B336     1.0000 0.00000  0.70580  0.35530  Biso   1.000  B 
  N24      1.0000 0.99134  0.79533  0.34133  Biso   1.000  N 
  B337     1.0000 0.00000  0.64470  0.29420  Biso   1.000  B 
  B338     1.0000 0.00000  0.66950  0.22490  Biso   1.000  B 
  B339     1.0000 0.00000  0.65650  0.34350  Biso   1.000  B 
  B340     1.0000 0.00000  0.61720  0.38280  Biso   1.000  B 
  B341     1.0000 0.00000  0.71490  0.38860  Biso   1.000  B 
  B342     1.0000 0.00000  0.61140  0.28510  Biso   1.000  B 
  B343     1.0000 0.00000  0.63260  0.42810  Biso   1.000  B 
  B344     1.0000 0.00000  0.57190  0.36740  Biso   1.000  B 
  C133     1.0000 0.00627  0.89103  0.43861  Biso   1.000  C 
  C134     1.0000 0.03758  0.82508  0.35495  Biso   1.000  C 
  C135     1.0000 0.90658  0.69854  0.10445  Biso   1.000  C 
  C136     1.0000 0.93905  0.68214  0.14941  Biso   1.000  C 
  C137     1.0000 0.05547  0.81400  0.40734  Biso   1.000  C 
  C138     1.0000 0.02403  0.83725  0.44815  Biso   1.000  C 
  C139     1.0000 0.03270  0.88433  0.34814  Biso   1.000  C 
  C140     1.0000 0.99214  0.90180  0.38440  Biso   1.000  C 
  H265     1.0000 0.98309  0.94234  0.38093  Biso   1.000  H 
  H266     1.0000 0.95815  0.88001  0.37681  Biso   1.000  H 
  H267     1.0000 0.02120  0.89646  0.31055  Biso   1.000  H 
  H268     1.0000 0.06742  0.90416  0.35757  Biso   1.000  H 
  C141     1.0000 0.93212  0.62056  0.05398  Biso   1.000  C 
  C142     1.0000 0.96362  0.60587  0.09681  Biso   1.000  C 
  H269     1.0000 0.95178  0.60994  0.01831  Biso   1.000  H 
  C143     1.0000 0.91975  0.67704  0.05401  Biso   1.000  C 
  C144     1.0000 0.94520  0.62487  0.14597  Biso   1.000  C 
  H270     1.0000 0.88825  0.68217  0.02896  Biso   1.000  H 
  H271     1.0000 0.95118  0.69776  0.03778  Biso   1.000  H 
  H272     1.0000 0.97220  0.89887  0.46126  Biso   1.000  H 
  H273     1.0000 0.01838  0.69529  0.13234  Biso   1.000  H 
  H274     1.0000 0.96409  0.79579  0.36901  Biso   1.000  H 
  H275     1.0000 0.03669  0.91663  0.45038  Biso   1.000  H 
  H276     1.0000 0.00106  0.62236  0.08982  Biso   1.000  H 
  H277     1.0000 0.96665  0.56497  0.09769  Biso   1.000  H 
  H278     1.0000 0.96819  0.60913  0.17601  Biso   1.000  H 
  H279     1.0000 0.09323  0.82944  0.40849  Biso   1.000  H 
  H280     1.0000 0.05896  0.77384  0.41423  Biso   1.000  H 
  H281     1.0000 0.04686  0.83576  0.48240  Biso   1.000  H 
  H282     1.0000 0.86678  0.68610  0.11093  Biso   1.000  H 
  H283     1.0000 0.90700  0.74039  0.10399  Biso   1.000  H 
  H284     1.0000 0.91721  0.68936  0.18395  Biso   1.000  H 
  H285     1.0000 0.06797  0.81178  0.33020  Biso   1.000  H 
  H286     1.0000 0.99060  0.81242  0.45257  Biso   1.000  H 
  H287     1.0000 0.89601  0.59839  0.05652  Biso   1.000  H 
  H288     1.0000 0.90944  0.60708  0.14641  Biso   1.000  H 
  B345     1.0000 0.13260  0.50000  0.57190  Biso   1.000  B 
  B346     1.0000 0.11720  0.50000  0.61720  Biso   1.000  B 
  B347     1.0000 0.07190  0.50000  0.63260  Biso   1.000  B 
  B348     1.0000 0.15650  0.50000  0.65650  Biso   1.000  B 
  B349     1.0000 0.20580  0.50000  0.64470  Biso   1.000  B 
  B350     1.0000 0.14470  0.50000  0.70580  Biso   1.000  B 
  B351     1.0000 0.24200  0.50000  0.67950  Biso   1.000  B 
  B352     1.0000 0.21490  0.50000  0.61140  Biso   1.000  B 
  B353     1.0000 0.17950  0.50000  0.74200  Biso   1.000  B 
  B354     1.0000 0.11140  0.50000  0.71490  Biso   1.000  B 
  B355     1.0000 0.23070  0.50000  0.73070  Biso   1.000  B 
  B356     1.0000 0.26930  0.50000  0.76930  Biso   1.000  B 
  B357     1.0000 0.27510  0.50000  0.66950  Biso   1.000  B 
  B358     1.0000 0.32050  0.50000  0.75800  Biso   1.000  B 
  N25      1.0000 0.16321  0.53472  0.78515  Biso   1.000  N 
  B359     1.0000 0.25800  0.50000  0.82050  Biso   1.000  B 
  B360     1.0000 0.35530  0.50000  0.79420  Biso   1.000  B 
  N26      1.0000 0.34068  0.48612  0.70689  Biso   1.000  N 
  B361     1.0000 0.29420  0.50000  0.85530  Biso   1.000  B 
  B362     1.0000 0.22490  0.50000  0.83050  Biso   1.000  B 
  B363     1.0000 0.34350  0.50000  0.84350  Biso   1.000  B 
  B364     1.0000 0.38280  0.50000  0.88280  Biso   1.000  B 
  B365     1.0000 0.38860  0.50000  0.78510  Biso   1.000  B 
  B366     1.0000 0.28510  0.50000  0.88860  Biso   1.000  B 
  B367     1.0000 0.42810  0.50000  0.86740  Biso   1.000  B 
  B368     1.0000 0.36740  0.50000  0.92810  Biso   1.000  B 
  C145     1.0000 0.34394  0.33581  0.66245  Biso   1.000  C 
  C146     1.0000 0.34375  0.43255  0.69253  Biso   1.000  C 
  C147     1.0000 0.21313  0.61157  0.78911  Biso   1.000  C 
  C148     1.0000 0.16348  0.58981  0.77308  Biso   1.000  C 
  C149     1.0000 0.30931  0.41851  0.64708  Biso   1.000  C 
  C150     1.0000 0.32575  0.36903  0.62240  Biso   1.000  C 
  C151     1.0000 0.32356  0.40102  0.73295  Biso   1.000  C 
  C152     1.0000 0.32493  0.34629  0.71665  Biso   1.000  C 
  H289     1.0000 0.34909  0.32464  0.74131  Biso   1.000  H 
  H290     1.0000 0.28668  0.33237  0.71913  Biso   1.000  H 
  H291     1.0000 0.28501  0.41235  0.74055  Biso   1.000  H 
  H292     1.0000 0.34664  0.40631  0.76655  Biso   1.000  H 
  C153     1.0000 0.17718  0.69565  0.75230  Biso   1.000  C 
  C154     1.0000 0.14300  0.66642  0.71443  Biso   1.000  C 
  H293     1.0000 0.19191  0.72695  0.73105  Biso   1.000  H 
  C155     1.0000 0.22067  0.66633  0.77265  Biso   1.000  C 
  C156     1.0000 0.15449  0.60876  0.71921  Biso   1.000  C 
  H294     1.0000 0.23830  0.68461  0.80397  Biso   1.000  H 
  H295     1.0000 0.24791  0.66483  0.74185  Biso   1.000  H 
  H296     1.0000 0.33232  0.29708  0.65521  Biso   1.000  H 
  H297     1.0000 0.12771  0.52400  0.79666  Biso   1.000  H 
  H298     1.0000 0.37493  0.50332  0.70320  Biso   1.000  H 
  H299     1.0000 0.38508  0.33723  0.65821  Biso   1.000  H 
  H300     1.0000 0.14809  0.67709  0.67456  Biso   1.000  H 
  H301     1.0000 0.10304  0.67374  0.72334  Biso   1.000  H 
  H302     1.0000 0.18666  0.60082  0.69403  Biso   1.000  H 
  H303     1.0000 0.31362  0.44878  0.61883  Biso   1.000  H 
  H304     1.0000 0.26857  0.41595  0.65597  Biso   1.000  H 
  H305     1.0000 0.35507  0.37534  0.59407  Biso   1.000  H 
  H306     1.0000 0.21662  0.60799  0.83095  Biso   1.000  H 
  H307     1.0000 0.24474  0.59012  0.77155  Biso   1.000  H 
  H308     1.0000 0.13639  0.60793  0.79653  Biso   1.000  H 
  H309     1.0000 0.38442  0.42623  0.68366  Biso   1.000  H 
  H310     1.0000 0.29467  0.35018  0.60355  Biso   1.000  H 
  H311     1.0000 0.15522  0.70993  0.78480  Biso   1.000  H 
  H312     1.0000 0.12039  0.59186  0.70296  Biso   1.000  H 
  B369     1.0000 0.86740  0.50000  0.57190  Biso   1.000  B 
  B370     1.0000 0.88280  0.50000  0.61720  Biso   1.000  B 
  B371     1.0000 0.92810  0.50000  0.63260  Biso   1.000  B 
  B372     1.0000 0.84350  0.50000  0.65650  Biso   1.000  B 
  B373     1.0000 0.79420  0.50000  0.64470  Biso   1.000  B 
  B374     1.0000 0.85530  0.50000  0.70580  Biso   1.000  B 
  B375     1.0000 0.75800  0.50000  0.67950  Biso   1.000  B 
  B376     1.0000 0.78510  0.50000  0.61140  Biso   1.000  B 
  B377     1.0000 0.82050  0.50000  0.74200  Biso   1.000  B 
  B378     1.0000 0.88860  0.50000  0.71490  Biso   1.000  B 
  B379     1.0000 0.76930  0.50000  0.73070  Biso   1.000  B 
  B380     1.0000 0.73070  0.50000  0.76930  Biso   1.000  B 
  B381     1.0000 0.72490  0.50000  0.66950  Biso   1.000  B 
  B382     1.0000 0.67950  0.50000  0.75800  Biso   1.000  B 
  N27      1.0000 0.83679  0.46528  0.78515  Biso   1.000  N 
  B383     1.0000 0.74200  0.50000  0.82050  Biso   1.000  B 
  B384     1.0000 0.64470  0.50000  0.79420  Biso   1.000  B 
  N28      1.0000 0.65932  0.51388  0.70689  Biso   1.000  N 
  B385     1.0000 0.70580  0.50000  0.85530  Biso   1.000  B 
  B386     1.0000 0.77510  0.50000  0.83050  Biso   1.000  B 
  B387     1.0000 0.65650  0.50000  0.84350  Biso   1.000  B 
  B388     1.0000 0.61720  0.50000  0.88280  Biso   1.000  B 
  B389     1.0000 0.61140  0.50000  0.78510  Biso   1.000  B 
  B390     1.0000 0.71490  0.50000  0.88860  Biso   1.000  B 
  B391     1.0000 0.57190  0.50000  0.86740  Biso   1.000  B 
  B392     1.0000 0.63260  0.50000  0.92810  Biso   1.000  B 
  C157     1.0000 0.65606  0.66418  0.66245  Biso   1.000  C 
  C158     1.0000 0.65625  0.56745  0.69253  Biso   1.000  C 
  C159     1.0000 0.78686  0.38843  0.78911  Biso   1.000  C 
  C160     1.0000 0.83652  0.41019  0.77308  Biso   1.000  C 
  C161     1.0000 0.69069  0.58149  0.64708  Biso   1.000  C 
  C162     1.0000 0.67425  0.63096  0.62240  Biso   1.000  C 
  C163     1.0000 0.67644  0.59898  0.73295  Biso   1.000  C 
  C164     1.0000 0.67507  0.65371  0.71665  Biso   1.000  C 
  H313     1.0000 0.65091  0.67536  0.74131  Biso   1.000  H 
  H314     1.0000 0.71332  0.66763  0.71913  Biso   1.000  H 
  H315     1.0000 0.71499  0.58765  0.74055  Biso   1.000  H 
  H316     1.0000 0.65336  0.59369  0.76655  Biso   1.000  H 
  C165     1.0000 0.82282  0.30434  0.75230  Biso   1.000  C 
  C166     1.0000 0.85700  0.33358  0.71443  Biso   1.000  C 
  H317     1.0000 0.80809  0.27305  0.73105  Biso   1.000  H 
  C167     1.0000 0.77933  0.33367  0.77265  Biso   1.000  C 
  C168     1.0000 0.84551  0.39124  0.71921  Biso   1.000  C 
  H318     1.0000 0.76170  0.31539  0.80397  Biso   1.000  H 
  H319     1.0000 0.75209  0.33517  0.74185  Biso   1.000  H 
  H320     1.0000 0.66768  0.70292  0.65521  Biso   1.000  H 
  H321     1.0000 0.87229  0.47600  0.79666  Biso   1.000  H 
  H322     1.0000 0.62507  0.49668  0.70320  Biso   1.000  H 
  H323     1.0000 0.61492  0.66278  0.65821  Biso   1.000  H 
  H324     1.0000 0.85190  0.32291  0.67456  Biso   1.000  H 
  H325     1.0000 0.89696  0.32626  0.72334  Biso   1.000  H 
  H326     1.0000 0.81334  0.39918  0.69403  Biso   1.000  H 
  H327     1.0000 0.68638  0.55122  0.61883  Biso   1.000  H 
  H328     1.0000 0.73142  0.58405  0.65597  Biso   1.000  H 
  H329     1.0000 0.64493  0.62466  0.59407  Biso   1.000  H 
  H330     1.0000 0.78338  0.39201  0.83095  Biso   1.000  H 
  H331     1.0000 0.75526  0.40988  0.77155  Biso   1.000  H 
  H332     1.0000 0.86361  0.39207  0.79653  Biso   1.000  H 
  H333     1.0000 0.61558  0.57377  0.68366  Biso   1.000  H 
  H334     1.0000 0.70533  0.64982  0.60355  Biso   1.000  H 
  H335     1.0000 0.84478  0.29007  0.78480  Biso   1.000  H 
  H336     1.0000 0.87961  0.40814  0.70296  Biso   1.000  H 
  B393     1.0000 0.86740  0.50000  0.42810  Biso   1.000  B 
  B394     1.0000 0.88280  0.50000  0.38280  Biso   1.000  B 
  B395     1.0000 0.92810  0.50000  0.36740  Biso   1.000  B 
  B396     1.0000 0.84350  0.50000  0.34350  Biso   1.000  B 
  B397     1.0000 0.79420  0.50000  0.35530  Biso   1.000  B 
  B398     1.0000 0.85530  0.50000  0.29420  Biso   1.000  B 
  B399     1.0000 0.75800  0.50000  0.32050  Biso   1.000  B 
  B400     1.0000 0.78510  0.50000  0.38860  Biso   1.000  B 
  B401     1.0000 0.82050  0.50000  0.25800  Biso   1.000  B 
  B402     1.0000 0.88860  0.50000  0.28510  Biso   1.000  B 
  B403     1.0000 0.76930  0.50000  0.26930  Biso   1.000  B 
  B404     1.0000 0.73070  0.50000  0.23070  Biso   1.000  B 
  B405     1.0000 0.72490  0.50000  0.33050  Biso   1.000  B 
  B406     1.0000 0.67950  0.50000  0.24200  Biso   1.000  B 
  N29      1.0000 0.83679  0.53472  0.21485  Biso   1.000  N 
  B407     1.0000 0.74200  0.50000  0.17950  Biso   1.000  B 
  B408     1.0000 0.64470  0.50000  0.20580  Biso   1.000  B 
  N30      1.0000 0.65932  0.48612  0.29311  Biso   1.000  N 
  B409     1.0000 0.70580  0.50000  0.14470  Biso   1.000  B 
  B410     1.0000 0.77510  0.50000  0.16950  Biso   1.000  B 
  B411     1.0000 0.65650  0.50000  0.15650  Biso   1.000  B 
  B412     1.0000 0.61720  0.50000  0.11720  Biso   1.000  B 
  B413     1.0000 0.61140  0.50000  0.21490  Biso   1.000  B 
  B414     1.0000 0.71490  0.50000  0.11140  Biso   1.000  B 
  B415     1.0000 0.57190  0.50000  0.13260  Biso   1.000  B 
  B416     1.0000 0.63260  0.50000  0.07190  Biso   1.000  B 
  C169     1.0000 0.65606  0.33581  0.33755  Biso   1.000  C 
  C170     1.0000 0.65625  0.43255  0.30747  Biso   1.000  C 
  C171     1.0000 0.78686  0.61157  0.21089  Biso   1.000  C 
  C172     1.0000 0.83652  0.58981  0.22692  Biso   1.000  C 
  C173     1.0000 0.69069  0.41851  0.35292  Biso   1.000  C 
  C174     1.0000 0.67425  0.36903  0.37760  Biso   1.000  C 
  C175     1.0000 0.67644  0.40102  0.26705  Biso   1.000  C 
  C176     1.0000 0.67507  0.34629  0.28336  Biso   1.000  C 
  H337     1.0000 0.65091  0.32464  0.25869  Biso   1.000  H 
  H338     1.0000 0.71332  0.33237  0.28087  Biso   1.000  H 
  H339     1.0000 0.71499  0.41235  0.25946  Biso   1.000  H 
  H340     1.0000 0.65336  0.40631  0.23345  Biso   1.000  H 
  C177     1.0000 0.82282  0.69565  0.24770  Biso   1.000  C 
  C178     1.0000 0.85700  0.66642  0.28557  Biso   1.000  C 
  H341     1.0000 0.80809  0.72695  0.26895  Biso   1.000  H 
  C179     1.0000 0.77933  0.66633  0.22735  Biso   1.000  C 
  C180     1.0000 0.84551  0.60876  0.28079  Biso   1.000  C 
  H342     1.0000 0.76170  0.68461  0.19603  Biso   1.000  H 
  H343     1.0000 0.75209  0.66483  0.25815  Biso   1.000  H 
  H344     1.0000 0.66768  0.29708  0.34479  Biso   1.000  H 
  H345     1.0000 0.87229  0.52400  0.20334  Biso   1.000  H 
  H346     1.0000 0.62507  0.50332  0.29680  Biso   1.000  H 
  H347     1.0000 0.61492  0.33723  0.34179  Biso   1.000  H 
  H348     1.0000 0.85190  0.67709  0.32544  Biso   1.000  H 
  H349     1.0000 0.89696  0.67374  0.27666  Biso   1.000  H 
  H350     1.0000 0.81334  0.60082  0.30597  Biso   1.000  H 
  H351     1.0000 0.68638  0.44878  0.38117  Biso   1.000  H 
  H352     1.0000 0.73142  0.41595  0.34403  Biso   1.000  H 
  H353     1.0000 0.64493  0.37534  0.40593  Biso   1.000  H 
  H354     1.0000 0.78338  0.60799  0.16905  Biso   1.000  H 
  H355     1.0000 0.75526  0.59012  0.22844  Biso   1.000  H 
  H356     1.0000 0.86361  0.60793  0.20347  Biso   1.000  H 
  H357     1.0000 0.61558  0.42623  0.31634  Biso   1.000  H 
  H358     1.0000 0.70533  0.35018  0.39645  Biso   1.000  H 
  H359     1.0000 0.84478  0.70993  0.21520  Biso   1.000  H 
  H360     1.0000 0.87961  0.59186  0.29704  Biso   1.000  H 
  B417     1.0000 0.13260  0.50000  0.42810  Biso   1.000  B 
  B418     1.0000 0.11720  0.50000  0.38280  Biso   1.000  B 
  B419     1.0000 0.07190  0.50000  0.36740  Biso   1.000  B 
  B420     1.0000 0.15650  0.50000  0.34350  Biso   1.000  B 
  B421     1.0000 0.20580  0.50000  0.35530  Biso   1.000  B 
  B422     1.0000 0.14470  0.50000  0.29420  Biso   1.000  B 
  B423     1.0000 0.24200  0.50000  0.32050  Biso   1.000  B 
  B424     1.0000 0.21490  0.50000  0.38860  Biso   1.000  B 
  B425     1.0000 0.17950  0.50000  0.25800  Biso   1.000  B 
  B426     1.0000 0.11140  0.50000  0.28510  Biso   1.000  B 
  B427     1.0000 0.23070  0.50000  0.26930  Biso   1.000  B 
  B428     1.0000 0.26930  0.50000  0.23070  Biso   1.000  B 
  B429     1.0000 0.27510  0.50000  0.33050  Biso   1.000  B 
  B430     1.0000 0.32050  0.50000  0.24200  Biso   1.000  B 
  N31      1.0000 0.16321  0.46528  0.21485  Biso   1.000  N 
  B431     1.0000 0.25800  0.50000  0.17950  Biso   1.000  B 
  B432     1.0000 0.35530  0.50000  0.20580  Biso   1.000  B 
  N32      1.0000 0.34068  0.51388  0.29311  Biso   1.000  N 
  B433     1.0000 0.29420  0.50000  0.14470  Biso   1.000  B 
  B434     1.0000 0.22490  0.50000  0.16950  Biso   1.000  B 
  B435     1.0000 0.34350  0.50000  0.15650  Biso   1.000  B 
  B436     1.0000 0.38280  0.50000  0.11720  Biso   1.000  B 
  B437     1.0000 0.38860  0.50000  0.21490  Biso   1.000  B 
  B438     1.0000 0.28510  0.50000  0.11140  Biso   1.000  B 
  B439     1.0000 0.42810  0.50000  0.13260  Biso   1.000  B 
  B440     1.0000 0.36740  0.50000  0.07190  Biso   1.000  B 
  C181     1.0000 0.34394  0.66418  0.33755  Biso   1.000  C 
  C182     1.0000 0.34375  0.56745  0.30747  Biso   1.000  C 
  C183     1.0000 0.21313  0.38843  0.21089  Biso   1.000  C 
  C184     1.0000 0.16348  0.41019  0.22692  Biso   1.000  C 
  C185     1.0000 0.30931  0.58149  0.35292  Biso   1.000  C 
  C186     1.0000 0.32575  0.63096  0.37760  Biso   1.000  C 
  C187     1.0000 0.32356  0.59898  0.26705  Biso   1.000  C 
  C188     1.0000 0.32493  0.65371  0.28336  Biso   1.000  C 
  H361     1.0000 0.34909  0.67536  0.25869  Biso   1.000  H 
  H362     1.0000 0.28668  0.66763  0.28087  Biso   1.000  H 
  H363     1.0000 0.28501  0.58765  0.25946  Biso   1.000  H 
  H364     1.0000 0.34664  0.59369  0.23345  Biso   1.000  H 
  C189     1.0000 0.17718  0.30434  0.24770  Biso   1.000  C 
  C190     1.0000 0.14300  0.33358  0.28557  Biso   1.000  C 
  H365     1.0000 0.19191  0.27305  0.26895  Biso   1.000  H 
  C191     1.0000 0.22067  0.33367  0.22735  Biso   1.000  C 
  C192     1.0000 0.15449  0.39124  0.28079  Biso   1.000  C 
  H366     1.0000 0.23830  0.31539  0.19603  Biso   1.000  H 
  H367     1.0000 0.24791  0.33517  0.25815  Biso   1.000  H 
  H368     1.0000 0.33232  0.70292  0.34479  Biso   1.000  H 
  H369     1.0000 0.12771  0.47600  0.20334  Biso   1.000  H 
  H370     1.0000 0.37493  0.49668  0.29680  Biso   1.000  H 
  H371     1.0000 0.38508  0.66278  0.34179  Biso   1.000  H 
  H372     1.0000 0.14809  0.32291  0.32544  Biso   1.000  H 
  H373     1.0000 0.10304  0.32626  0.27666  Biso   1.000  H 
  H374     1.0000 0.18666  0.39918  0.30597  Biso   1.000  H 
  H375     1.0000 0.31362  0.55122  0.38117  Biso   1.000  H 
  H376     1.0000 0.26857  0.58405  0.34403  Biso   1.000  H 
  H377     1.0000 0.35507  0.62466  0.40593  Biso   1.000  H 
  H378     1.0000 0.21662  0.39201  0.16905  Biso   1.000  H 
  H379     1.0000 0.24474  0.40988  0.22844  Biso   1.000  H 
  H380     1.0000 0.13639  0.39207  0.20347  Biso   1.000  H 
  H381     1.0000 0.38442  0.57377  0.31634  Biso   1.000  H 
  H382     1.0000 0.29467  0.64982  0.39645  Biso   1.000  H 
  H383     1.0000 0.15522  0.29007  0.21520  Biso   1.000  H 
  H384     1.0000 0.12039  0.40814  0.29704  Biso   1.000  H 
  B441     1.0000 0.07190  0.63260  0.50000  Biso   1.000  B 
  B442     1.0000 0.11720  0.61720  0.50000  Biso   1.000  B 
  B443     1.0000 0.13260  0.57190  0.50000  Biso   1.000  B 
  B444     1.0000 0.15650  0.65650  0.50000  Biso   1.000  B 
  B445     1.0000 0.14470  0.70580  0.50000  Biso   1.000  B 
  B446     1.0000 0.20580  0.64470  0.50000  Biso   1.000  B 
  B447     1.0000 0.17950  0.74200  0.50000  Biso   1.000  B 
  B448     1.0000 0.11140  0.71490  0.50000  Biso   1.000  B 
  B449     1.0000 0.24200  0.67950  0.50000  Biso   1.000  B 
  B450     1.0000 0.21490  0.61140  0.50000  Biso   1.000  B 
  B451     1.0000 0.23070  0.73070  0.50000  Biso   1.000  B 
  B452     1.0000 0.26930  0.76930  0.50000  Biso   1.000  B 
  B453     1.0000 0.16950  0.77510  0.50000  Biso   1.000  B 
  B454     1.0000 0.25800  0.82050  0.50000  Biso   1.000  B 
  N33      1.0000 0.29406  0.65781  0.50635  Biso   1.000  N 
  B455     1.0000 0.32050  0.75800  0.50000  Biso   1.000  B 
  B456     1.0000 0.29420  0.85530  0.50000  Biso   1.000  B 
  N34      1.0000 0.20659  0.84002  0.49959  Biso   1.000  N 
  B457     1.0000 0.35530  0.79420  0.50000  Biso   1.000  B 
  B458     1.0000 0.33050  0.72490  0.50000  Biso   1.000  B 
  B459     1.0000 0.34350  0.84350  0.50000  Biso   1.000  B 
  B460     1.0000 0.38280  0.88280  0.50000  Biso   1.000  B 
  B461     1.0000 0.28510  0.88860  0.50000  Biso   1.000  B 
  B462     1.0000 0.38860  0.78510  0.50000  Biso   1.000  B 
  B463     1.0000 0.36740  0.92810  0.50000  Biso   1.000  B 
  B464     1.0000 0.42810  0.86740  0.50000  Biso   1.000  B 
  C193     1.0000 0.21915  0.94539  0.43955  Biso   1.000  C 
  C194     1.0000 0.18239  0.85084  0.45147  Biso   1.000  C 
  C195     1.0000 0.28073  0.61530  0.59022  Biso   1.000  C 
  C196     1.0000 0.31140  0.65077  0.55829  Biso   1.000  C 
  C197     1.0000 0.21671  0.85521  0.40683  Biso   1.000  C 
  C198     1.0000 0.22785  0.90844  0.39590  Biso   1.000  C 
  C199     1.0000 0.14521  0.89330  0.45731  Biso   1.000  C 
  C200     1.0000 0.17273  0.93884  0.47075  Biso   1.000  C 
  H385     1.0000 0.14883  0.97193  0.46477  Biso   1.000  H 
  H386     1.0000 0.18412  0.93894  0.51113  Biso   1.000  H 
  H387     1.0000 0.11895  0.88272  0.48730  Biso   1.000  H 
  H388     1.0000 0.12401  0.90070  0.42242  Biso   1.000  H 
  C201     1.0000 0.33758  0.54415  0.56228  Biso   1.000  C 
  C202     1.0000 0.37104  0.57771  0.53412  Biso   1.000  C 
  H389     1.0000 0.33578  0.50787  0.54380  Biso   1.000  H 
  C203     1.0000 0.28507  0.56447  0.56697  Biso   1.000  C 
  C204     1.0000 0.36399  0.63216  0.55686  Biso   1.000  C 
  H390     1.0000 0.26760  0.54013  0.59178  Biso   1.000  H 
  H391     1.0000 0.26723  0.56008  0.53055  Biso   1.000  H 
  H392     1.0000 0.25243  0.94539  0.46308  Biso   1.000  H 
  H393     1.0000 0.29907  0.62691  0.48328  Biso   1.000  H 
  H394     1.0000 0.20004  0.86487  0.52841  Biso   1.000  H 
  H395     1.0000 0.21509  0.98322  0.42294  Biso   1.000  H 
  H396     1.0000 0.36450  0.57529  0.49368  Biso   1.000  H 
  H397     1.0000 0.41008  0.56518  0.54160  Biso   1.000  H 
  H398     1.0000 0.38749  0.66159  0.53899  Biso   1.000  H 
  H399     1.0000 0.19617  0.84084  0.37343  Biso   1.000  H 
  H400     1.0000 0.25141  0.83352  0.40907  Biso   1.000  H 
  H401     1.0000 0.20595  0.92056  0.36302  Biso   1.000  H 
  H402     1.0000 0.29368  0.61252  0.63068  Biso   1.000  H 
  H403     1.0000 0.24004  0.62594  0.59037  Biso   1.000  H 
  H404     1.0000 0.31012  0.68674  0.57789  Biso   1.000  H 
  H405     1.0000 0.16047  0.81796  0.44113  Biso   1.000  H 
  H406     1.0000 0.26728  0.90906  0.38480  Biso   1.000  H 
  H407     1.0000 0.35184  0.54043  0.59978  Biso   1.000  H 
  H408     1.0000 0.37561  0.62875  0.59663  Biso   1.000  H 
  B465     1.0000 0.07190  0.36740  0.50000  Biso   1.000  B 
  B466     1.0000 0.11720  0.38280  0.50000  Biso   1.000  B 
  B467     1.0000 0.13260  0.42810  0.50000  Biso   1.000  B 
  B468     1.0000 0.15650  0.34350  0.50000  Biso   1.000  B 
  B469     1.0000 0.14470  0.29420  0.50000  Biso   1.000  B 
  B470     1.0000 0.20580  0.35530  0.50000  Biso   1.000  B 
  B471     1.0000 0.17950  0.25800  0.50000  Biso   1.000  B 
  B472     1.0000 0.11140  0.28510  0.50000  Biso   1.000  B 
  B473     1.0000 0.24200  0.32050  0.50000  Biso   1.000  B 
  B474     1.0000 0.21490  0.38860  0.50000  Biso   1.000  B 
  B475     1.0000 0.23070  0.26930  0.50000  Biso   1.000  B 
  B476     1.0000 0.26930  0.23070  0.50000  Biso   1.000  B 
  B477     1.0000 0.16950  0.22490  0.50000  Biso   1.000  B 
  B478     1.0000 0.25800  0.17950  0.50000  Biso   1.000  B 
  N35      1.0000 0.29406  0.34219  0.49365  Biso   1.000  N 
  B479     1.0000 0.32050  0.24200  0.50000  Biso   1.000  B 
  B480     1.0000 0.29420  0.14470  0.50000  Biso   1.000  B 
  N36      1.0000 0.20659  0.15998  0.50041  Biso   1.000  N 
  B481     1.0000 0.35530  0.20580  0.50000  Biso   1.000  B 
  B482     1.0000 0.33050  0.27510  0.50000  Biso   1.000  B 
  B483     1.0000 0.34350  0.15650  0.50000  Biso   1.000  B 
  B484     1.0000 0.38280  0.11720  0.50000  Biso   1.000  B 
  B485     1.0000 0.28510  0.11140  0.50000  Biso   1.000  B 
  B486     1.0000 0.38860  0.21490  0.50000  Biso   1.000  B 
  B487     1.0000 0.36740  0.07190  0.50000  Biso   1.000  B 
  B488     1.0000 0.42810  0.13260  0.50000  Biso   1.000  B 
  C205     1.0000 0.21915  0.05461  0.56045  Biso   1.000  C 
  C206     1.0000 0.18239  0.14916  0.54853  Biso   1.000  C 
  C207     1.0000 0.28073  0.38470  0.40978  Biso   1.000  C 
  C208     1.0000 0.31140  0.34923  0.44171  Biso   1.000  C 
  C209     1.0000 0.21671  0.14479  0.59317  Biso   1.000  C 
  C210     1.0000 0.22785  0.09156  0.60410  Biso   1.000  C 
  C211     1.0000 0.14521  0.10670  0.54269  Biso   1.000  C 
  C212     1.0000 0.17273  0.06116  0.52925  Biso   1.000  C 
  H409     1.0000 0.14883  0.02808  0.53523  Biso   1.000  H 
  H410     1.0000 0.18412  0.06106  0.48887  Biso   1.000  H 
  H411     1.0000 0.11895  0.11728  0.51270  Biso   1.000  H 
  H412     1.0000 0.12401  0.09930  0.57758  Biso   1.000  H 
  C213     1.0000 0.33758  0.45585  0.43772  Biso   1.000  C 
  C214     1.0000 0.37104  0.42229  0.46588  Biso   1.000  C 
  H413     1.0000 0.33578  0.49213  0.45620  Biso   1.000  H 
  C215     1.0000 0.28507  0.43553  0.43303  Biso   1.000  C 
  C216     1.0000 0.36399  0.36784  0.44314  Biso   1.000  C 
  H414     1.0000 0.26760  0.45987  0.40822  Biso   1.000  H 
  H415     1.0000 0.26723  0.43992  0.46945  Biso   1.000  H 
  H416     1.0000 0.25243  0.05461  0.53692  Biso   1.000  H 
  H417     1.0000 0.29907  0.37309  0.51672  Biso   1.000  H 
  H418     1.0000 0.20004  0.13513  0.47159  Biso   1.000  H 
  H419     1.0000 0.21509  0.01678  0.57706  Biso   1.000  H 
  H420     1.0000 0.36450  0.42471  0.50632  Biso   1.000  H 
  H421     1.0000 0.41008  0.43482  0.45840  Biso   1.000  H 
  H422     1.0000 0.38749  0.33841  0.46101  Biso   1.000  H 
  H423     1.0000 0.19617  0.15916  0.62657  Biso   1.000  H 
  H424     1.0000 0.25141  0.16648  0.59093  Biso   1.000  H 
  H425     1.0000 0.20595  0.07944  0.63698  Biso   1.000  H 
  H426     1.0000 0.29368  0.38748  0.36931  Biso   1.000  H 
  H427     1.0000 0.24004  0.37406  0.40963  Biso   1.000  H 
  H428     1.0000 0.31012  0.31326  0.42211  Biso   1.000  H 
  H429     1.0000 0.16047  0.18204  0.55887  Biso   1.000  H 
  H430     1.0000 0.26728  0.09093  0.61520  Biso   1.000  H 
  H431     1.0000 0.35184  0.45957  0.40022  Biso   1.000  H 
  H432     1.0000 0.37561  0.37125  0.40337  Biso   1.000  H 
  B489     1.0000 0.92810  0.36740  0.50000  Biso   1.000  B 
  B490     1.0000 0.88280  0.38280  0.50000  Biso   1.000  B 
  B491     1.0000 0.86740  0.42810  0.50000  Biso   1.000  B 
  B492     1.0000 0.84350  0.34350  0.50000  Biso   1.000  B 
  B493     1.0000 0.85530  0.29420  0.50000  Biso   1.000  B 
  B494     1.0000 0.79420  0.35530  0.50000  Biso   1.000  B 
  B495     1.0000 0.82050  0.25800  0.50000  Biso   1.000  B 
  B496     1.0000 0.88860  0.28510  0.50000  Biso   1.000  B 
  B497     1.0000 0.75800  0.32050  0.50000  Biso   1.000  B 
  B498     1.0000 0.78510  0.38860  0.50000  Biso   1.000  B 
  B499     1.0000 0.76930  0.26930  0.50000  Biso   1.000  B 
  B500     1.0000 0.73070  0.23070  0.50000  Biso   1.000  B 
  B501     1.0000 0.83050  0.22490  0.50000  Biso   1.000  B 
  B502     1.0000 0.74200  0.17950  0.50000  Biso   1.000  B 
  N37      1.0000 0.70594  0.34219  0.50635  Biso   1.000  N 
  B503     1.0000 0.67950  0.24200  0.50000  Biso   1.000  B 
  B504     1.0000 0.70580  0.14470  0.50000  Biso   1.000  B 
  N38      1.0000 0.79341  0.15998  0.49959  Biso   1.000  N 
  B505     1.0000 0.64470  0.20580  0.50000  Biso   1.000  B 
  B506     1.0000 0.66950  0.27510  0.50000  Biso   1.000  B 
  B507     1.0000 0.65650  0.15650  0.50000  Biso   1.000  B 
  B508     1.0000 0.61720  0.11720  0.50000  Biso   1.000  B 
  B509     1.0000 0.71490  0.11140  0.50000  Biso   1.000  B 
  B510     1.0000 0.61140  0.21490  0.50000  Biso   1.000  B 
  B511     1.0000 0.63260  0.07190  0.50000  Biso   1.000  B 
  B512     1.0000 0.57190  0.13260  0.50000  Biso   1.000  B 
  C217     1.0000 0.78086  0.05461  0.43955  Biso   1.000  C 
  C218     1.0000 0.81761  0.14916  0.45147  Biso   1.000  C 
  C219     1.0000 0.71927  0.38470  0.59022  Biso   1.000  C 
  C220     1.0000 0.68860  0.34923  0.55829  Biso   1.000  C 
  C221     1.0000 0.78329  0.14479  0.40683  Biso   1.000  C 
  C222     1.0000 0.77215  0.09156  0.39590  Biso   1.000  C 
  C223     1.0000 0.85479  0.10670  0.45731  Biso   1.000  C 
  C224     1.0000 0.82727  0.06116  0.47075  Biso   1.000  C 
  H433     1.0000 0.85117  0.02808  0.46477  Biso   1.000  H 
  H434     1.0000 0.81588  0.06106  0.51113  Biso   1.000  H 
  H435     1.0000 0.88105  0.11728  0.48730  Biso   1.000  H 
  H436     1.0000 0.87599  0.09930  0.42242  Biso   1.000  H 
  C225     1.0000 0.66242  0.45585  0.56228  Biso   1.000  C 
  C226     1.0000 0.62896  0.42229  0.53412  Biso   1.000  C 
  H437     1.0000 0.66423  0.49213  0.54380  Biso   1.000  H 
  C227     1.0000 0.71492  0.43553  0.56697  Biso   1.000  C 
  C228     1.0000 0.63601  0.36784  0.55686  Biso   1.000  C 
  H438     1.0000 0.73240  0.45987  0.59178  Biso   1.000  H 
  H439     1.0000 0.73276  0.43992  0.53055  Biso   1.000  H 
  H440     1.0000 0.74757  0.05461  0.46308  Biso   1.000  H 
  H441     1.0000 0.70093  0.37309  0.48328  Biso   1.000  H 
  H442     1.0000 0.79996  0.13513  0.52841  Biso   1.000  H 
  H443     1.0000 0.78491  0.01678  0.42294  Biso   1.000  H 
  H444     1.0000 0.63550  0.42471  0.49368  Biso   1.000  H 
  H445     1.0000 0.58992  0.43482  0.54160  Biso   1.000  H 
  H446     1.0000 0.61251  0.33841  0.53899  Biso   1.000  H 
  H447     1.0000 0.80383  0.15916  0.37343  Biso   1.000  H 
  H448     1.0000 0.74859  0.16648  0.40907  Biso   1.000  H 
  H449     1.0000 0.79405  0.07944  0.36302  Biso   1.000  H 
  H450     1.0000 0.70632  0.38748  0.63068  Biso   1.000  H 
  H451     1.0000 0.75996  0.37406  0.59037  Biso   1.000  H 
  H452     1.0000 0.68988  0.31326  0.57789  Biso   1.000  H 
  H453     1.0000 0.83953  0.18204  0.44113  Biso   1.000  H 
  H454     1.0000 0.73272  0.09093  0.38480  Biso   1.000  H 
  H455     1.0000 0.64816  0.45957  0.59978  Biso   1.000  H 
  H456     1.0000 0.62439  0.37125  0.59663  Biso   1.000  H 
  B513     1.0000 0.92810  0.63260  0.50000  Biso   1.000  B 
  B514     1.0000 0.88280  0.61720  0.50000  Biso   1.000  B 
  B515     1.0000 0.86740  0.57190  0.50000  Biso   1.000  B 
  B516     1.0000 0.84350  0.65650  0.50000  Biso   1.000  B 
  B517     1.0000 0.85530  0.70580  0.50000  Biso   1.000  B 
  B518     1.0000 0.79420  0.64470  0.50000  Biso   1.000  B 
  B519     1.0000 0.82050  0.74200  0.50000  Biso   1.000  B 
  B520     1.0000 0.88860  0.71490  0.50000  Biso   1.000  B 
  B521     1.0000 0.75800  0.67950  0.50000  Biso   1.000  B 
  B522     1.0000 0.78510  0.61140  0.50000  Biso   1.000  B 
  B523     1.0000 0.76930  0.73070  0.50000  Biso   1.000  B 
  B524     1.0000 0.73070  0.76930  0.50000  Biso   1.000  B 
  B525     1.0000 0.83050  0.77510  0.50000  Biso   1.000  B 
  B526     1.0000 0.74200  0.82050  0.50000  Biso   1.000  B 
  N39      1.0000 0.70594  0.65781  0.49365  Biso   1.000  N 
  B527     1.0000 0.67950  0.75800  0.50000  Biso   1.000  B 
  B528     1.0000 0.70580  0.85530  0.50000  Biso   1.000  B 
  N40      1.0000 0.79341  0.84002  0.50041  Biso   1.000  N 
  B529     1.0000 0.64470  0.79420  0.50000  Biso   1.000  B 
  B530     1.0000 0.66950  0.72490  0.50000  Biso   1.000  B 
  B531     1.0000 0.65650  0.84350  0.50000  Biso   1.000  B 
  B532     1.0000 0.61720  0.88280  0.50000  Biso   1.000  B 
  B533     1.0000 0.71490  0.88860  0.50000  Biso   1.000  B 
  B534     1.0000 0.61140  0.78510  0.50000  Biso   1.000  B 
  B535     1.0000 0.63260  0.92810  0.50000  Biso   1.000  B 
  B536     1.0000 0.57190  0.86740  0.50000  Biso   1.000  B 
  C229     1.0000 0.78086  0.94539  0.56045  Biso   1.000  C 
  C230     1.0000 0.81761  0.85084  0.54853  Biso   1.000  C 
  C231     1.0000 0.71927  0.61530  0.40978  Biso   1.000  C 
  C232     1.0000 0.68860  0.65077  0.44171  Biso   1.000  C 
  C233     1.0000 0.78329  0.85521  0.59317  Biso   1.000  C 
  C234     1.0000 0.77215  0.90844  0.60410  Biso   1.000  C 
  C235     1.0000 0.85479  0.89330  0.54269  Biso   1.000  C 
  C236     1.0000 0.82727  0.93884  0.52925  Biso   1.000  C 
  H457     1.0000 0.85117  0.97193  0.53523  Biso   1.000  H 
  H458     1.0000 0.81588  0.93894  0.48887  Biso   1.000  H 
  H459     1.0000 0.88105  0.88272  0.51270  Biso   1.000  H 
  H460     1.0000 0.87599  0.90070  0.57758  Biso   1.000  H 
  C237     1.0000 0.66242  0.54415  0.43772  Biso   1.000  C 
  C238     1.0000 0.62896  0.57771  0.46588  Biso   1.000  C 
  H461     1.0000 0.66423  0.50787  0.45620  Biso   1.000  H 
  C239     1.0000 0.71492  0.56447  0.43303  Biso   1.000  C 
  C240     1.0000 0.63601  0.63216  0.44314  Biso   1.000  C 
  H462     1.0000 0.73240  0.54013  0.40822  Biso   1.000  H 
  H463     1.0000 0.73276  0.56008  0.46945  Biso   1.000  H 
  H464     1.0000 0.74757  0.94539  0.53692  Biso   1.000  H 
  H465     1.0000 0.70093  0.62691  0.51672  Biso   1.000  H 
  H466     1.0000 0.79996  0.86487  0.47159  Biso   1.000  H 
  H467     1.0000 0.78491  0.98322  0.57706  Biso   1.000  H 
  H468     1.0000 0.63550  0.57529  0.50632  Biso   1.000  H 
  H469     1.0000 0.58992  0.56518  0.45840  Biso   1.000  H 
  H470     1.0000 0.61251  0.66159  0.46101  Biso   1.000  H 
  H471     1.0000 0.80383  0.84084  0.62657  Biso   1.000  H 
  H472     1.0000 0.74859  0.83352  0.59093  Biso   1.000  H 
  H473     1.0000 0.79405  0.92056  0.63698  Biso   1.000  H 
  H474     1.0000 0.70632  0.61252  0.36931  Biso   1.000  H 
  H475     1.0000 0.75996  0.62594  0.40963  Biso   1.000  H 
  H476     1.0000 0.68988  0.68674  0.42211  Biso   1.000  H 
  H477     1.0000 0.83953  0.81796  0.55887  Biso   1.000  H 
  H478     1.0000 0.73272  0.90906  0.61520  Biso   1.000  H 
  H479     1.0000 0.64816  0.54043  0.40022  Biso   1.000  H 
  H480     1.0000 0.62439  0.62875  0.40337  Biso   1.000  H 
  B537     1.0000 0.50000  0.07190  0.63260  Biso   1.000  B 
  B538     1.0000 0.50000  0.11720  0.61720  Biso   1.000  B 
  B539     1.0000 0.50000  0.13260  0.57190  Biso   1.000  B 
  B540     1.0000 0.50000  0.15650  0.65650  Biso   1.000  B 
  B541     1.0000 0.50000  0.14470  0.70580  Biso   1.000  B 
  B542     1.0000 0.50000  0.20580  0.64470  Biso   1.000  B 
  B543     1.0000 0.50000  0.17950  0.74200  Biso   1.000  B 
  B544     1.0000 0.50000  0.11140  0.71490  Biso   1.000  B 
  B545     1.0000 0.50000  0.24200  0.67950  Biso   1.000  B 
  B546     1.0000 0.50000  0.21490  0.61140  Biso   1.000  B 
  B547     1.0000 0.50000  0.23070  0.73070  Biso   1.000  B 
  B548     1.0000 0.50000  0.26930  0.76930  Biso   1.000  B 
  B549     1.0000 0.50000  0.16950  0.77510  Biso   1.000  B 
  B550     1.0000 0.50000  0.25800  0.82050  Biso   1.000  B 
  N41      1.0000 0.51942  0.29190  0.66198  Biso   1.000  N 
  B551     1.0000 0.50000  0.32050  0.75800  Biso   1.000  B 
  B552     1.0000 0.50000  0.29420  0.85530  Biso   1.000  B 
  N42      1.0000 0.50845  0.20567  0.84217  Biso   1.000  N 
  B553     1.0000 0.50000  0.35530  0.79420  Biso   1.000  B 
  B554     1.0000 0.50000  0.33050  0.72490  Biso   1.000  B 
  B555     1.0000 0.50000  0.34350  0.84350  Biso   1.000  B 
  B556     1.0000 0.50000  0.38280  0.88280  Biso   1.000  B 
  B557     1.0000 0.50000  0.28510  0.88860  Biso   1.000  B 
  B558     1.0000 0.50000  0.38860  0.78510  Biso   1.000  B 
  B559     1.0000 0.50000  0.36740  0.92810  Biso   1.000  B 
  B560     1.0000 0.50000  0.42810  0.86740  Biso   1.000  B 
  C241     1.0000 0.45294  0.21752  0.95415  Biso   1.000  C 
  C242     1.0000 0.45853  0.18310  0.85596  Biso   1.000  C 
  C243     1.0000 0.60102  0.33907  0.69140  Biso   1.000  C 
  C244     1.0000 0.57494  0.29497  0.66244  Biso   1.000  C 
  C245     1.0000 0.41569  0.22114  0.86662  Biso   1.000  C 
  C246     1.0000 0.41323  0.23764  0.91947  Biso   1.000  C 
  C247     1.0000 0.46033  0.14282  0.89622  Biso   1.000  C 
  C248     1.0000 0.46334  0.16246  0.94888  Biso   1.000  C 
  H481     1.0000 0.43741  0.13978  0.97257  Biso   1.000  H 
  H482     1.0000 0.50271  0.15540  0.95988  Biso   1.000  H 
  H483     1.0000 0.48931  0.11466  0.88850  Biso   1.000  H 
  H484     1.0000 0.42435  0.12451  0.89386  Biso   1.000  H 
  C249     1.0000 0.65170  0.28033  0.74409  Biso   1.000  C 
  C250     1.0000 0.62429  0.23526  0.72188  Biso   1.000  C 
  H485     1.0000 0.66255  0.27024  0.78238  Biso   1.000  H 
  C251     1.0000 0.61863  0.32667  0.74469  Biso   1.000  C 
  C252     1.0000 0.60707  0.24705  0.67037  Biso   1.000  C 
  H486     1.0000 0.64214  0.35807  0.75629  Biso   1.000  H 
  H487     1.0000 0.59086  0.32001  0.77461  Biso   1.000  H 
  H488     1.0000 0.48667  0.23866  0.94767  Biso   1.000  H 
  H489     1.0000 0.50535  0.30208  0.62698  Biso   1.000  H 
  H490     1.0000 0.53067  0.20838  0.87437  Biso   1.000  H 
  H491     1.0000 0.44069  0.22529  0.99340  Biso   1.000  H 
  H492     1.0000 0.59293  0.22594  0.74738  Biso   1.000  H 
  H493     1.0000 0.64889  0.20188  0.71678  Biso   1.000  H 
  H494     1.0000 0.59248  0.21362  0.65533  Biso   1.000  H 
  H495     1.0000 0.37973  0.20356  0.85853  Biso   1.000  H 
  H496     1.0000 0.41630  0.25482  0.84297  Biso   1.000  H 
  H497     1.0000 0.37694  0.22399  0.93268  Biso   1.000  H 
  H498     1.0000 0.63652  0.34852  0.67314  Biso   1.000  H 
  H499     1.0000 0.57588  0.37263  0.69139  Biso   1.000  H 
  H500     1.0000 0.58385  0.30269  0.62239  Biso   1.000  H 
  H501     1.0000 0.44463  0.16743  0.82169  Biso   1.000  H 
  H502     1.0000 0.41336  0.27911  0.92061  Biso   1.000  H 
  H503     1.0000 0.68653  0.28635  0.72326  Biso   1.000  H 
  H504     1.0000 0.64307  0.25363  0.65042  Biso   1.000  H 
  B561     1.0000 0.50000  0.07190  0.36740  Biso   1.000  B 
  B562     1.0000 0.50000  0.11720  0.38280  Biso   1.000  B 
  B563     1.0000 0.50000  0.13260  0.42810  Biso   1.000  B 
  B564     1.0000 0.50000  0.15650  0.34350  Biso   1.000  B 
  B565     1.0000 0.50000  0.14470  0.29420  Biso   1.000  B 
  B566     1.0000 0.50000  0.20580  0.35530  Biso   1.000  B 
  B567     1.0000 0.50000  0.17950  0.25800  Biso   1.000  B 
  B568     1.0000 0.50000  0.11140  0.28510  Biso   1.000  B 
  B569     1.0000 0.50000  0.24200  0.32050  Biso   1.000  B 
  B570     1.0000 0.50000  0.21490  0.38860  Biso   1.000  B 
  B571     1.0000 0.50000  0.23070  0.26930  Biso   1.000  B 
  B572     1.0000 0.50000  0.26930  0.23070  Biso   1.000  B 
  B573     1.0000 0.50000  0.16950  0.22490  Biso   1.000  B 
  B574     1.0000 0.50000  0.25800  0.17950  Biso   1.000  B 
  N43      1.0000 0.48058  0.29190  0.33802  Biso   1.000  N 
  B575     1.0000 0.50000  0.32050  0.24200  Biso   1.000  B 
  B576     1.0000 0.50000  0.29420  0.14470  Biso   1.000  B 
  N44      1.0000 0.49155  0.20567  0.15783  Biso   1.000  N 
  B577     1.0000 0.50000  0.35530  0.20580  Biso   1.000  B 
  B578     1.0000 0.50000  0.33050  0.27510  Biso   1.000  B 
  B579     1.0000 0.50000  0.34350  0.15650  Biso   1.000  B 
  B580     1.0000 0.50000  0.38280  0.11720  Biso   1.000  B 
  B581     1.0000 0.50000  0.28510  0.11140  Biso   1.000  B 
  B582     1.0000 0.50000  0.38860  0.21490  Biso   1.000  B 
  B583     1.0000 0.50000  0.36740  0.07190  Biso   1.000  B 
  B584     1.0000 0.50000  0.42810  0.13260  Biso   1.000  B 
  C253     1.0000 0.54706  0.21752  0.04585  Biso   1.000  C 
  C254     1.0000 0.54147  0.18310  0.14404  Biso   1.000  C 
  C255     1.0000 0.39898  0.33907  0.30860  Biso   1.000  C 
  C256     1.0000 0.42506  0.29497  0.33756  Biso   1.000  C 
  C257     1.0000 0.58431  0.22114  0.13338  Biso   1.000  C 
  C258     1.0000 0.58677  0.23764  0.08053  Biso   1.000  C 
  C259     1.0000 0.53967  0.14282  0.10379  Biso   1.000  C 
  C260     1.0000 0.53666  0.16246  0.05111  Biso   1.000  C 
  H505     1.0000 0.56259  0.13978  0.02743  Biso   1.000  H 
  H506     1.0000 0.49729  0.15540  0.04012  Biso   1.000  H 
  H507     1.0000 0.51069  0.11466  0.11151  Biso   1.000  H 
  H508     1.0000 0.57565  0.12451  0.10614  Biso   1.000  H 
  C261     1.0000 0.34830  0.28033  0.25591  Biso   1.000  C 
  C262     1.0000 0.37571  0.23526  0.27812  Biso   1.000  C 
  H509     1.0000 0.33745  0.27024  0.21761  Biso   1.000  H 
  C263     1.0000 0.38137  0.32667  0.25531  Biso   1.000  C 
  C264     1.0000 0.39293  0.24705  0.32962  Biso   1.000  C 
  H510     1.0000 0.35786  0.35807  0.24371  Biso   1.000  H 
  H511     1.0000 0.40914  0.32001  0.22539  Biso   1.000  H 
  H512     1.0000 0.51333  0.23866  0.05233  Biso   1.000  H 
  H513     1.0000 0.49465  0.30208  0.37302  Biso   1.000  H 
  H514     1.0000 0.46933  0.20838  0.12563  Biso   1.000  H 
  H515     1.0000 0.55931  0.22529  0.00660  Biso   1.000  H 
  H516     1.0000 0.40707  0.22594  0.25262  Biso   1.000  H 
  H517     1.0000 0.35111  0.20188  0.28322  Biso   1.000  H 
  H518     1.0000 0.40752  0.21362  0.34467  Biso   1.000  H 
  H519     1.0000 0.62027  0.20356  0.14147  Biso   1.000  H 
  H520     1.0000 0.58370  0.25482  0.15703  Biso   1.000  H 
  H521     1.0000 0.62306  0.22399  0.06732  Biso   1.000  H 
  H522     1.0000 0.36348  0.34852  0.32685  Biso   1.000  H 
  H523     1.0000 0.42412  0.37263  0.30861  Biso   1.000  H 
  H524     1.0000 0.41615  0.30269  0.37761  Biso   1.000  H 
  H525     1.0000 0.55537  0.16743  0.17831  Biso   1.000  H 
  H526     1.0000 0.58664  0.27911  0.07939  Biso   1.000  H 
  H527     1.0000 0.31347  0.28635  0.27674  Biso   1.000  H 
  H528     1.0000 0.35693  0.25363  0.34958  Biso   1.000  H 
  B585     1.0000 0.50000  0.92810  0.36740  Biso   1.000  B 
  B586     1.0000 0.50000  0.88280  0.38280  Biso   1.000  B 
  B587     1.0000 0.50000  0.86740  0.42810  Biso   1.000  B 
  B588     1.0000 0.50000  0.84350  0.34350  Biso   1.000  B 
  B589     1.0000 0.50000  0.85530  0.29420  Biso   1.000  B 
  B590     1.0000 0.50000  0.79420  0.35530  Biso   1.000  B 
  B591     1.0000 0.50000  0.82050  0.25800  Biso   1.000  B 
  B592     1.0000 0.50000  0.88860  0.28510  Biso   1.000  B 
  B593     1.0000 0.50000  0.75800  0.32050  Biso   1.000  B 
  B594     1.0000 0.50000  0.78510  0.38860  Biso   1.000  B 
  B595     1.0000 0.50000  0.76930  0.26930  Biso   1.000  B 
  B596     1.0000 0.50000  0.73070  0.23070  Biso   1.000  B 
  B597     1.0000 0.50000  0.83050  0.22490  Biso   1.000  B 
  B598     1.0000 0.50000  0.74200  0.17950  Biso   1.000  B 
  N45      1.0000 0.51942  0.70810  0.33802  Biso   1.000  N 
  B599     1.0000 0.50000  0.67950  0.24200  Biso   1.000  B 
  B600     1.0000 0.50000  0.70580  0.14470  Biso   1.000  B 
  N46      1.0000 0.50845  0.79433  0.15783  Biso   1.000  N 
  B601     1.0000 0.50000  0.64470  0.20580  Biso   1.000  B 
  B602     1.0000 0.50000  0.66950  0.27510  Biso   1.000  B 
  B603     1.0000 0.50000  0.65650  0.15650  Biso   1.000  B 
  B604     1.0000 0.50000  0.61720  0.11720  Biso   1.000  B 
  B605     1.0000 0.50000  0.71490  0.11140  Biso   1.000  B 
  B606     1.0000 0.50000  0.61140  0.21490  Biso   1.000  B 
  B607     1.0000 0.50000  0.63260  0.07190  Biso   1.000  B 
  B608     1.0000 0.50000  0.57190  0.13260  Biso   1.000  B 
  C265     1.0000 0.45294  0.78248  0.04585  Biso   1.000  C 
  C266     1.0000 0.45853  0.81690  0.14404  Biso   1.000  C 
  C267     1.0000 0.60102  0.66093  0.30860  Biso   1.000  C 
  C268     1.0000 0.57494  0.70503  0.33756  Biso   1.000  C 
  C269     1.0000 0.41569  0.77886  0.13338  Biso   1.000  C 
  C270     1.0000 0.41323  0.76236  0.08053  Biso   1.000  C 
  C271     1.0000 0.46033  0.85718  0.10379  Biso   1.000  C 
  C272     1.0000 0.46334  0.83754  0.05111  Biso   1.000  C 
  H529     1.0000 0.43741  0.86022  0.02743  Biso   1.000  H 
  H530     1.0000 0.50271  0.84460  0.04012  Biso   1.000  H 
  H531     1.0000 0.48931  0.88534  0.11151  Biso   1.000  H 
  H532     1.0000 0.42435  0.87549  0.10614  Biso   1.000  H 
  C273     1.0000 0.65170  0.71967  0.25591  Biso   1.000  C 
  C274     1.0000 0.62429  0.76473  0.27812  Biso   1.000  C 
  H533     1.0000 0.66255  0.72976  0.21761  Biso   1.000  H 
  C275     1.0000 0.61863  0.67333  0.25531  Biso   1.000  C 
  C276     1.0000 0.60707  0.75295  0.32962  Biso   1.000  C 
  H534     1.0000 0.64214  0.64192  0.24371  Biso   1.000  H 
  H535     1.0000 0.59086  0.67999  0.22539  Biso   1.000  H 
  H536     1.0000 0.48667  0.76134  0.05233  Biso   1.000  H 
  H537     1.0000 0.50535  0.69792  0.37302  Biso   1.000  H 
  H538     1.0000 0.53067  0.79162  0.12563  Biso   1.000  H 
  H539     1.0000 0.44069  0.77471  0.00660  Biso   1.000  H 
  H540     1.0000 0.59293  0.77406  0.25262  Biso   1.000  H 
  H541     1.0000 0.64889  0.79812  0.28322  Biso   1.000  H 
  H542     1.0000 0.59248  0.78638  0.34467  Biso   1.000  H 
  H543     1.0000 0.37973  0.79644  0.14147  Biso   1.000  H 
  H544     1.0000 0.41630  0.74518  0.15703  Biso   1.000  H 
  H545     1.0000 0.37694  0.77601  0.06732  Biso   1.000  H 
  H546     1.0000 0.63652  0.65148  0.32685  Biso   1.000  H 
  H547     1.0000 0.57588  0.62737  0.30861  Biso   1.000  H 
  H548     1.0000 0.58385  0.69730  0.37761  Biso   1.000  H 
  H549     1.0000 0.44463  0.83257  0.17831  Biso   1.000  H 
  H550     1.0000 0.41336  0.72089  0.07939  Biso   1.000  H 
  H551     1.0000 0.68653  0.71365  0.27674  Biso   1.000  H 
  H552     1.0000 0.64307  0.74637  0.34958  Biso   1.000  H 
  B609     1.0000 0.50000  0.92810  0.63260  Biso   1.000  B 
  B610     1.0000 0.50000  0.88280  0.61720  Biso   1.000  B 
  B611     1.0000 0.50000  0.86740  0.57190  Biso   1.000  B 
  B612     1.0000 0.50000  0.84350  0.65650  Biso   1.000  B 
  B613     1.0000 0.50000  0.85530  0.70580  Biso   1.000  B 
  B614     1.0000 0.50000  0.79420  0.64470  Biso   1.000  B 
  B615     1.0000 0.50000  0.82050  0.74200  Biso   1.000  B 
  B616     1.0000 0.50000  0.88860  0.71490  Biso   1.000  B 
  B617     1.0000 0.50000  0.75800  0.67950  Biso   1.000  B 
  B618     1.0000 0.50000  0.78510  0.61140  Biso   1.000  B 
  B619     1.0000 0.50000  0.76930  0.73070  Biso   1.000  B 
  B620     1.0000 0.50000  0.73070  0.76930  Biso   1.000  B 
  B621     1.0000 0.50000  0.83050  0.77510  Biso   1.000  B 
  B622     1.0000 0.50000  0.74200  0.82050  Biso   1.000  B 
  N47      1.0000 0.48058  0.70810  0.66198  Biso   1.000  N 
  B623     1.0000 0.50000  0.67950  0.75800  Biso   1.000  B 
  B624     1.0000 0.50000  0.70580  0.85530  Biso   1.000  B 
  N48      1.0000 0.49155  0.79433  0.84217  Biso   1.000  N 
  B625     1.0000 0.50000  0.64470  0.79420  Biso   1.000  B 
  B626     1.0000 0.50000  0.66950  0.72490  Biso   1.000  B 
  B627     1.0000 0.50000  0.65650  0.84350  Biso   1.000  B 
  B628     1.0000 0.50000  0.61720  0.88280  Biso   1.000  B 
  B629     1.0000 0.50000  0.71490  0.88860  Biso   1.000  B 
  B630     1.0000 0.50000  0.61140  0.78510  Biso   1.000  B 
  B631     1.0000 0.50000  0.63260  0.92810  Biso   1.000  B 
  B632     1.0000 0.50000  0.57190  0.86740  Biso   1.000  B 
  C277     1.0000 0.54706  0.78248  0.95415  Biso   1.000  C 
  C278     1.0000 0.54147  0.81690  0.85596  Biso   1.000  C 
  C279     1.0000 0.39898  0.66093  0.69140  Biso   1.000  C 
  C280     1.0000 0.42506  0.70503  0.66244  Biso   1.000  C 
  C281     1.0000 0.58431  0.77886  0.86662  Biso   1.000  C 
  C282     1.0000 0.58677  0.76236  0.91947  Biso   1.000  C 
  C283     1.0000 0.53967  0.85718  0.89622  Biso   1.000  C 
  C284     1.0000 0.53666  0.83754  0.94888  Biso   1.000  C 
  H553     1.0000 0.56259  0.86022  0.97257  Biso   1.000  H 
  H554     1.0000 0.49729  0.84460  0.95988  Biso   1.000  H 
  H555     1.0000 0.51069  0.88534  0.88850  Biso   1.000  H 
  H556     1.0000 0.57565  0.87549  0.89386  Biso   1.000  H 
  C285     1.0000 0.34830  0.71967  0.74409  Biso   1.000  C 
  C286     1.0000 0.37571  0.76473  0.72188  Biso   1.000  C 
  H557     1.0000 0.33745  0.72976  0.78238  Biso   1.000  H 
  C287     1.0000 0.38137  0.67333  0.74469  Biso   1.000  C 
  C288     1.0000 0.39293  0.75295  0.67037  Biso   1.000  C 
  H558     1.0000 0.35786  0.64192  0.75629  Biso   1.000  H 
  H559     1.0000 0.40914  0.67999  0.77461  Biso   1.000  H 
  H560     1.0000 0.51333  0.76134  0.94767  Biso   1.000  H 
  H561     1.0000 0.49465  0.69792  0.62698  Biso   1.000  H 
  H562     1.0000 0.46933  0.79162  0.87437  Biso   1.000  H 
  H563     1.0000 0.55931  0.77471  0.99340  Biso   1.000  H 
  H564     1.0000 0.40707  0.77406  0.74738  Biso   1.000  H 
  H565     1.0000 0.35111  0.79812  0.71678  Biso   1.000  H 
  H566     1.0000 0.40752  0.78638  0.65533  Biso   1.000  H 
  H567     1.0000 0.62027  0.79644  0.85853  Biso   1.000  H 
  H568     1.0000 0.58370  0.74518  0.84297  Biso   1.000  H 
  H569     1.0000 0.62306  0.77601  0.93268  Biso   1.000  H 
  H570     1.0000 0.36348  0.65148  0.67314  Biso   1.000  H 
  H571     1.0000 0.42412  0.62737  0.69139  Biso   1.000  H 
  H572     1.0000 0.41615  0.69730  0.62239  Biso   1.000  H 
  H573     1.0000 0.55537  0.83257  0.82169  Biso   1.000  H 
  H574     1.0000 0.58664  0.72089  0.92061  Biso   1.000  H 
  H575     1.0000 0.31347  0.71365  0.72326  Biso   1.000  H 
  H576     1.0000 0.35693  0.74637  0.65042  Biso   1.000  H 
