data_image0
_cell_length_a       20.7004
_cell_length_b       20.7004
_cell_length_c       20.7004
_cell_angle_alpha    90
_cell_angle_beta     90
_cell_angle_gamma    90

_symmetry_space_group_name_H-M    "P 1"
_symmetry_int_tables_number       1

loop_
  _symmetry_equiv_pos_as_xyz
  'x, y, z'

loop_
  _atom_site_label
  _atom_site_occupancy
  _atom_site_fract_x
  _atom_site_fract_y
  _atom_site_fract_z
  _atom_site_thermal_displace_type
  _atom_site_B_iso_or_equiv
  _atom_site_type_symbol
  B1       1.0000 0.11989  0.00000  0.00000  Biso   1.000  B 
  B2       1.0000 0.11989  0.50000  0.50000  Biso   1.000  B 
  B3       1.0000 0.61989  0.00000  0.50000  Biso   1.000  B 
  B4       1.0000 0.61989  0.50000  0.00000  Biso   1.000  B 
  B5       1.0000 0.88011  0.00000  0.00000  Biso   1.000  B 
  B6       1.0000 0.88011  0.50000  0.50000  Biso   1.000  B 
  B7       1.0000 0.38011  0.00000  0.50000  Biso   1.000  B 
  B8       1.0000 0.38011  0.50000  0.00000  Biso   1.000  B 
  B9       1.0000 0.00000  0.11989  0.00000  Biso   1.000  B 
  B10      1.0000 0.00000  0.61989  0.50000  Biso   1.000  B 
  B11      1.0000 0.50000  0.11989  0.50000  Biso   1.000  B 
  B12      1.0000 0.50000  0.61989  0.00000  Biso   1.000  B 
  B13      1.0000 0.00000  0.88011  0.00000  Biso   1.000  B 
  B14      1.0000 0.00000  0.38011  0.50000  Biso   1.000  B 
  B15      1.0000 0.50000  0.88011  0.50000  Biso   1.000  B 
  B16      1.0000 0.50000  0.38011  0.00000  Biso   1.000  B 
  B17      1.0000 0.00000  0.00000  0.11989  Biso   1.000  B 
  B18      1.0000 0.00000  0.50000  0.61989  Biso   1.000  B 
  B19      1.0000 0.50000  0.00000  0.61989  Biso   1.000  B 
  B20      1.0000 0.50000  0.50000  0.11989  Biso   1.000  B 
  B21      1.0000 0.00000  0.00000  0.88011  Biso   1.000  B 
  B22      1.0000 0.00000  0.50000  0.38011  Biso   1.000  B 
  B23      1.0000 0.50000  0.00000  0.38011  Biso   1.000  B 
  B24      1.0000 0.50000  0.50000  0.88011  Biso   1.000  B 
  B25      1.0000 0.05610  0.44390  0.44390  Biso   1.000  B 
  B26      1.0000 0.55610  0.94390  0.44390  Biso   1.000  B 
  B27      1.0000 0.55610  0.44390  0.94390  Biso   1.000  B 
  B28      1.0000 0.44390  0.05610  0.44390  Biso   1.000  B 
  B29      1.0000 0.44390  0.55610  0.94390  Biso   1.000  B 
  B30      1.0000 0.94390  0.94390  0.05610  Biso   1.000  B 
  B31      1.0000 0.94390  0.44390  0.55610  Biso   1.000  B 
  B32      1.0000 0.05610  0.05610  0.05610  Biso   1.000  B 
  B33      1.0000 0.55610  0.55610  0.05610  Biso   1.000  B 
  B34      1.0000 0.94390  0.05610  0.05610  Biso   1.000  B 
  B35      1.0000 0.94390  0.55610  0.55610  Biso   1.000  B 
  B36      1.0000 0.44390  0.05610  0.55610  Biso   1.000  B 
  B37      1.0000 0.44390  0.55610  0.05610  Biso   1.000  B 
  B38      1.0000 0.05610  0.94390  0.05610  Biso   1.000  B 
  B39      1.0000 0.05610  0.44390  0.55610  Biso   1.000  B 
  B40      1.0000 0.55610  0.94390  0.55610  Biso   1.000  B 
  B41      1.0000 0.55610  0.44390  0.05610  Biso   1.000  B 
  B42      1.0000 0.94390  0.94390  0.94390  Biso   1.000  B 
  B43      1.0000 0.94390  0.44390  0.44390  Biso   1.000  B 
  B44      1.0000 0.44390  0.94390  0.44390  Biso   1.000  B 
  B45      1.0000 0.44390  0.44390  0.94390  Biso   1.000  B 
  B46      1.0000 0.05610  0.05610  0.94390  Biso   1.000  B 
  B47      1.0000 0.05610  0.55610  0.44390  Biso   1.000  B 
  B48      1.0000 0.55610  0.05610  0.44390  Biso   1.000  B 
  B49      1.0000 0.15360  0.00000  0.84640  Biso   1.000  B 
  B50      1.0000 0.17046  0.00000  0.90471  Biso   1.000  B 
  B51      1.0000 0.09529  0.00000  0.82954  Biso   1.000  B 
  B52      1.0000 0.20500  0.00000  0.79500  Biso   1.000  B 
  B53      1.0000 0.18437  0.00000  0.73249  Biso   1.000  B 
  B54      1.0000 0.13046  0.00000  0.72128  Biso   1.000  B 
  O1       1.0000 0.21643  0.98270  0.62025  Biso   1.000  O 
  B55      1.0000 0.23249  0.00000  0.68442  Biso   1.000  B 
  B56      1.0000 0.29500  0.00000  0.70500  Biso   1.000  B 
  B57      1.0000 0.31558  0.00000  0.76751  Biso   1.000  B 
  B58      1.0000 0.26751  0.00000  0.81563  Biso   1.000  B 
  B59      1.0000 0.27872  0.00000  0.86954  Biso   1.000  B 
  B60      1.0000 0.36949  0.00000  0.77872  Biso   1.000  B 
  B61      1.0000 0.40470  0.00000  0.67046  Biso   1.000  B 
  B62      1.0000 0.34640  0.00000  0.65360  Biso   1.000  B 
  B63      1.0000 0.32954  0.00000  0.59529  Biso   1.000  B 
  C1       1.0000 0.19814  0.03786  0.58523  Biso   1.000  C 
  C2       1.0000 0.17880  0.00500  0.52184  Biso   1.000  C 
  H1       1.0000 0.23749  0.07486  0.58512  Biso   1.000  H 
  H2       1.0000 0.15220  0.05924  0.60605  Biso   1.000  H 
  H3       1.0000 0.22331  0.99854  0.49375  Biso   1.000  H 
  C3       1.0000 0.13030  0.04117  0.47574  Biso   1.000  C 
  H4       1.0000 0.15555  0.95674  0.53110  Biso   1.000  H 
  H5       1.0000 0.13963  0.09223  0.46288  Biso   1.000  H 
  H6       1.0000 0.08165  0.03820  0.49901  Biso   1.000  H 
  H7       1.0000 0.12814  0.01491  0.42978  Biso   1.000  H 
  B64      1.0000 0.15360  0.50000  0.34640  Biso   1.000  B 
  B65      1.0000 0.17046  0.50000  0.40471  Biso   1.000  B 
  B66      1.0000 0.09529  0.50000  0.32954  Biso   1.000  B 
  B67      1.0000 0.20500  0.50000  0.29500  Biso   1.000  B 
  B68      1.0000 0.18437  0.50000  0.23249  Biso   1.000  B 
  B69      1.0000 0.13046  0.50000  0.22128  Biso   1.000  B 
  O2       1.0000 0.21380  0.47723  0.12273  Biso   1.000  O 
  B70      1.0000 0.23249  0.50000  0.18442  Biso   1.000  B 
  B71      1.0000 0.29500  0.50000  0.20500  Biso   1.000  B 
  B72      1.0000 0.31558  0.50000  0.26751  Biso   1.000  B 
  B73      1.0000 0.26751  0.50000  0.31563  Biso   1.000  B 
  B74      1.0000 0.27872  0.50000  0.36954  Biso   1.000  B 
  B75      1.0000 0.36949  0.50000  0.27872  Biso   1.000  B 
  B76      1.0000 0.40470  0.50000  0.17046  Biso   1.000  B 
  B77      1.0000 0.34640  0.50000  0.15360  Biso   1.000  B 
  B78      1.0000 0.32954  0.50000  0.09529  Biso   1.000  B 
  C4       1.0000 0.19234  0.52882  0.08358  Biso   1.000  C 
  C5       1.0000 0.17528  0.49920  0.01740  Biso   1.000  C 
  H8       1.0000 0.23029  0.56534  0.07713  Biso   1.000  H 
  H9       1.0000 0.14953  0.55152  0.10649  Biso   1.000  H 
  H10      1.0000 0.22259  0.49359  0.99095  Biso   1.000  H 
  C6       1.0000 0.12553  0.53500  0.97304  Biso   1.000  C 
  H11      1.0000 0.15595  0.45006  0.02661  Biso   1.000  H 
  H12      1.0000 0.14313  0.58193  0.95827  Biso   1.000  H 
  H13      1.0000 0.07950  0.53988  0.99833  Biso   1.000  H 
  H14      1.0000 0.12239  0.50627  0.92823  Biso   1.000  H 
  B79      1.0000 0.65360  0.00000  0.34640  Biso   1.000  B 
  B80      1.0000 0.67046  0.00000  0.40471  Biso   1.000  B 
  B81      1.0000 0.59529  0.00000  0.32954  Biso   1.000  B 
  B82      1.0000 0.70500  0.00000  0.29500  Biso   1.000  B 
  B83      1.0000 0.68437  0.00000  0.23249  Biso   1.000  B 
  B84      1.0000 0.63046  0.00000  0.22128  Biso   1.000  B 
  O3       1.0000 0.71542  0.97498  0.12039  Biso   1.000  O 
  B85      1.0000 0.73248  0.00000  0.18442  Biso   1.000  B 
  B86      1.0000 0.79499  0.00000  0.20500  Biso   1.000  B 
  B87      1.0000 0.81558  0.00000  0.26751  Biso   1.000  B 
  B88      1.0000 0.76751  0.00000  0.31563  Biso   1.000  B 
  B89      1.0000 0.77872  0.00000  0.36954  Biso   1.000  B 
  B90      1.0000 0.86949  0.00000  0.27872  Biso   1.000  B 
  B91      1.0000 0.90470  0.00000  0.17046  Biso   1.000  B 
  B92      1.0000 0.84639  0.00000  0.15360  Biso   1.000  B 
  B93      1.0000 0.82953  0.00000  0.09529  Biso   1.000  B 
  C7       1.0000 0.69064  0.02144  0.08028  Biso   1.000  C 
  C8       1.0000 0.67375  0.99248  0.01380  Biso   1.000  C 
  H15      1.0000 0.72819  0.05805  0.07408  Biso   1.000  H 
  H16      1.0000 0.64793  0.04342  0.10682  Biso   1.000  H 
  H17      1.0000 0.71800  0.98883  0.98198  Biso   1.000  H 
  C9       1.0000 0.62322  0.03119  0.97931  Biso   1.000  C 
  H18      1.0000 0.65484  0.94308  0.02084  Biso   1.000  H 
  H19      1.0000 0.62918  0.08343  0.98547  Biso   1.000  H 
  H20      1.0000 0.57558  0.01198  0.99319  Biso   1.000  H 
  H21      1.0000 0.63159  0.01794  0.92996  Biso   1.000  H 
  B94      1.0000 0.65360  0.50000  0.84640  Biso   1.000  B 
  B95      1.0000 0.67046  0.50000  0.90471  Biso   1.000  B 
  B96      1.0000 0.59529  0.50000  0.82954  Biso   1.000  B 
  B97      1.0000 0.70500  0.50000  0.79500  Biso   1.000  B 
  B98      1.0000 0.68437  0.50000  0.73249  Biso   1.000  B 
  B99      1.0000 0.63046  0.50000  0.72128  Biso   1.000  B 
  O4       1.0000 0.71367  0.47611  0.62196  Biso   1.000  O 
  B100     1.0000 0.73248  0.50000  0.68442  Biso   1.000  B 
  B101     1.0000 0.79499  0.50000  0.70500  Biso   1.000  B 
  B102     1.0000 0.81558  0.50000  0.76751  Biso   1.000  B 
  B103     1.0000 0.76751  0.50000  0.81563  Biso   1.000  B 
  B104     1.0000 0.77872  0.50000  0.86954  Biso   1.000  B 
  B105     1.0000 0.86949  0.50000  0.77872  Biso   1.000  B 
  B106     1.0000 0.90470  0.50000  0.67046  Biso   1.000  B 
  B107     1.0000 0.84639  0.50000  0.65360  Biso   1.000  B 
  B108     1.0000 0.82953  0.50000  0.59529  Biso   1.000  B 
  C10      1.0000 0.68820  0.52769  0.58470  Biso   1.000  C 
  C11      1.0000 0.68486  0.49985  0.51669  Biso   1.000  C 
  H22      1.0000 0.71553  0.57290  0.58856  Biso   1.000  H 
  H23      1.0000 0.63968  0.53928  0.60194  Biso   1.000  H 
  H24      1.0000 0.73298  0.50428  0.49237  Biso   1.000  H 
  C12      1.0000 0.63055  0.52239  0.47215  Biso   1.000  C 
  H25      1.0000 0.67151  0.44883  0.52288  Biso   1.000  H 
  H26      1.0000 0.64074  0.57386  0.45736  Biso   1.000  H 
  H27      1.0000 0.58271  0.51491  0.49587  Biso   1.000  H 
  H28      1.0000 0.63127  0.49167  0.42860  Biso   1.000  H 
  B109     1.0000 0.84640  0.00000  0.84640  Biso   1.000  B 
  B110     1.0000 0.82954  0.00000  0.90471  Biso   1.000  B 
  B111     1.0000 0.90471  0.00000  0.82954  Biso   1.000  B 
  B112     1.0000 0.79500  0.00000  0.79500  Biso   1.000  B 
  B113     1.0000 0.81563  0.00000  0.73249  Biso   1.000  B 
  B114     1.0000 0.86954  0.00000  0.72128  Biso   1.000  B 
  O5       1.0000 0.78633  0.01340  0.61774  Biso   1.000  O 
  B115     1.0000 0.76752  0.00000  0.68442  Biso   1.000  B 
  B116     1.0000 0.70501  0.00000  0.70500  Biso   1.000  B 
  B117     1.0000 0.68442  0.00000  0.76751  Biso   1.000  B 
  B118     1.0000 0.73249  0.00000  0.81563  Biso   1.000  B 
  B119     1.0000 0.72128  0.00000  0.86954  Biso   1.000  B 
  B120     1.0000 0.63051  0.00000  0.77872  Biso   1.000  B 
  B121     1.0000 0.59530  0.00000  0.67046  Biso   1.000  B 
  B122     1.0000 0.65361  0.00000  0.65360  Biso   1.000  B 
  B123     1.0000 0.67047  0.00000  0.59529  Biso   1.000  B 
  C13      1.0000 0.80635  0.95560  0.58694  Biso   1.000  C 
  C14      1.0000 0.88039  0.94319  0.59565  Biso   1.000  C 
  H29      1.0000 0.79392  0.96406  0.53627  Biso   1.000  H 
  H30      1.0000 0.77746  0.91277  0.60221  Biso   1.000  H 
  H31      1.0000 0.90650  0.98907  0.58900  Biso   1.000  H 
  C15      1.0000 0.90891  0.89713  0.54658  Biso   1.000  C 
  H32      1.0000 0.89302  0.92544  0.64504  Biso   1.000  H 
  H33      1.0000 0.91830  0.85012  0.56605  Biso   1.000  H 
  H34      1.0000 0.95431  0.92030  0.52759  Biso   1.000  H 
  H35      1.0000 0.87683  0.89461  0.50407  Biso   1.000  H 
  B124     1.0000 0.84640  0.50000  0.34640  Biso   1.000  B 
  B125     1.0000 0.82954  0.50000  0.40471  Biso   1.000  B 
  B126     1.0000 0.90471  0.50000  0.32954  Biso   1.000  B 
  B127     1.0000 0.79500  0.50000  0.29500  Biso   1.000  B 
  B128     1.0000 0.81563  0.50000  0.23249  Biso   1.000  B 
  B129     1.0000 0.86954  0.50000  0.22128  Biso   1.000  B 
  O6       1.0000 0.78725  0.50991  0.11716  Biso   1.000  O 
  B130     1.0000 0.76752  0.50000  0.18442  Biso   1.000  B 
  B131     1.0000 0.70501  0.50000  0.20500  Biso   1.000  B 
  B132     1.0000 0.68442  0.50000  0.26751  Biso   1.000  B 
  B133     1.0000 0.73249  0.50000  0.31563  Biso   1.000  B 
  B134     1.0000 0.72128  0.50000  0.36954  Biso   1.000  B 
  B135     1.0000 0.63051  0.50000  0.27872  Biso   1.000  B 
  B136     1.0000 0.59530  0.50000  0.17046  Biso   1.000  B 
  B137     1.0000 0.65361  0.50000  0.15360  Biso   1.000  B 
  B138     1.0000 0.67047  0.50000  0.09529  Biso   1.000  B 
  C16      1.0000 0.81896  0.45415  0.09538  Biso   1.000  C 
  C17      1.0000 0.85343  0.46742  0.03104  Biso   1.000  C 
  H36      1.0000 0.78276  0.41554  0.09163  Biso   1.000  H 
  H37      1.0000 0.85853  0.44088  0.12799  Biso   1.000  H 
  H38      1.0000 0.81798  0.47381  0.99410  Biso   1.000  H 
  C18      1.0000 0.89815  0.41163  0.01414  Biso   1.000  C 
  H39      1.0000 0.88169  0.51379  0.03654  Biso   1.000  H 
  H40      1.0000 0.89455  0.37020  0.04741  Biso   1.000  H 
  H41      1.0000 0.94848  0.43075  0.01956  Biso   1.000  H 
  H42      1.0000 0.88978  0.39491  0.96336  Biso   1.000  H 
  B139     1.0000 0.34640  0.00000  0.34640  Biso   1.000  B 
  B140     1.0000 0.32954  0.00000  0.40471  Biso   1.000  B 
  B141     1.0000 0.40471  0.00000  0.32954  Biso   1.000  B 
  B142     1.0000 0.29500  0.00000  0.29500  Biso   1.000  B 
  B143     1.0000 0.31563  0.00000  0.23249  Biso   1.000  B 
  B144     1.0000 0.36954  0.00000  0.22128  Biso   1.000  B 
  O7       1.0000 0.28393  0.01490  0.11930  Biso   1.000  O 
  B145     1.0000 0.26751  0.00000  0.18442  Biso   1.000  B 
  B146     1.0000 0.20500  0.00000  0.20500  Biso   1.000  B 
  B147     1.0000 0.18442  0.00000  0.26751  Biso   1.000  B 
  B148     1.0000 0.23249  0.00000  0.31563  Biso   1.000  B 
  B149     1.0000 0.22128  0.00000  0.36954  Biso   1.000  B 
  B150     1.0000 0.13051  0.00000  0.27872  Biso   1.000  B 
  B151     1.0000 0.09530  0.00000  0.17046  Biso   1.000  B 
  B152     1.0000 0.15360  0.00000  0.15360  Biso   1.000  B 
  B153     1.0000 0.17046  0.00000  0.09529  Biso   1.000  B 
  C19      1.0000 0.31107  0.95773  0.09129  Biso   1.000  C 
  C20      1.0000 0.35892  0.97273  0.03480  Biso   1.000  C 
  H43      1.0000 0.26978  0.93004  0.07378  Biso   1.000  H 
  H44      1.0000 0.33921  0.92916  0.12647  Biso   1.000  H 
  H45      1.0000 0.33010  0.98733  0.99100  Biso   1.000  H 
  C21      1.0000 0.40150  0.91238  0.01405  Biso   1.000  C 
  H46      1.0000 0.39233  0.01199  0.05084  Biso   1.000  H 
  H47      1.0000 0.39424  0.87230  0.04648  Biso   1.000  H 
  H48      1.0000 0.45259  0.92628  0.01614  Biso   1.000  H 
  H49      1.0000 0.38876  0.89571  0.96424  Biso   1.000  H 
  B154     1.0000 0.34640  0.50000  0.84640  Biso   1.000  B 
  B155     1.0000 0.32954  0.50000  0.90471  Biso   1.000  B 
  B156     1.0000 0.40471  0.50000  0.82954  Biso   1.000  B 
  B157     1.0000 0.29500  0.50000  0.79500  Biso   1.000  B 
  B158     1.0000 0.31563  0.50000  0.73249  Biso   1.000  B 
  B159     1.0000 0.36954  0.50000  0.72128  Biso   1.000  B 
  O8       1.0000 0.28463  0.51174  0.61936  Biso   1.000  O 
  B160     1.0000 0.26751  0.50000  0.68442  Biso   1.000  B 
  B161     1.0000 0.20500  0.50000  0.70500  Biso   1.000  B 
  B162     1.0000 0.18442  0.50000  0.76751  Biso   1.000  B 
  B163     1.0000 0.23249  0.50000  0.81563  Biso   1.000  B 
  B164     1.0000 0.22128  0.50000  0.86954  Biso   1.000  B 
  B165     1.0000 0.13051  0.50000  0.77872  Biso   1.000  B 
  B166     1.0000 0.09530  0.50000  0.67046  Biso   1.000  B 
  B167     1.0000 0.15360  0.50000  0.65360  Biso   1.000  B 
  B168     1.0000 0.17046  0.50000  0.59529  Biso   1.000  B 
  C22      1.0000 0.30816  0.45308  0.59229  Biso   1.000  C 
  C23      1.0000 0.38020  0.44477  0.58825  Biso   1.000  C 
  H50      1.0000 0.29108  0.45528  0.54299  Biso   1.000  H 
  H51      1.0000 0.28851  0.40886  0.61319  Biso   1.000  H 
  H52      1.0000 0.40308  0.47804  0.55297  Biso   1.000  H 
  C24      1.0000 0.40089  0.37546  0.57227  Biso   1.000  C 
  H53      1.0000 0.39928  0.45156  0.63553  Biso   1.000  H 
  H54      1.0000 0.37024  0.33785  0.59774  Biso   1.000  H 
  H55      1.0000 0.45226  0.36607  0.58262  Biso   1.000  H 
  H56      1.0000 0.39506  0.37122  0.51885  Biso   1.000  H 
  B169     1.0000 0.84640  0.15360  0.00000  Biso   1.000  B 
  B170     1.0000 0.90471  0.17046  0.00000  Biso   1.000  B 
  B171     1.0000 0.82954  0.09529  0.00000  Biso   1.000  B 
  B172     1.0000 0.79500  0.20500  0.00000  Biso   1.000  B 
  B173     1.0000 0.73249  0.18437  0.00000  Biso   1.000  B 
  B174     1.0000 0.72128  0.13046  0.00000  Biso   1.000  B 
  O9       1.0000 0.62206  0.21459  0.97867  Biso   1.000  O 
  B175     1.0000 0.68442  0.23249  0.00000  Biso   1.000  B 
  B176     1.0000 0.70500  0.29500  0.00000  Biso   1.000  B 
  B177     1.0000 0.76751  0.31558  0.00000  Biso   1.000  B 
  B178     1.0000 0.81563  0.26751  0.00000  Biso   1.000  B 
  B179     1.0000 0.86954  0.27872  0.00000  Biso   1.000  B 
  B180     1.0000 0.77872  0.36949  0.00000  Biso   1.000  B 
  B181     1.0000 0.67046  0.40470  0.00000  Biso   1.000  B 
  B182     1.0000 0.65360  0.34640  0.00000  Biso   1.000  B 
  B183     1.0000 0.59529  0.32954  0.00000  Biso   1.000  B 
  C25      1.0000 0.57957  0.19593  0.02940  Biso   1.000  C 
  C26      1.0000 0.51644  0.17327  0.99558  Biso   1.000  C 
  H57      1.0000 0.56906  0.23772  0.06071  Biso   1.000  H 
  H58      1.0000 0.60080  0.15736  0.06041  Biso   1.000  H 
  H59      1.0000 0.49182  0.21840  0.97913  Biso   1.000  H 
  C27      1.0000 0.46841  0.13430  0.03781  Biso   1.000  C 
  H60      1.0000 0.52981  0.14292  0.95296  Biso   1.000  H 
  H61      1.0000 0.44745  0.15918  0.07947  Biso   1.000  H 
  H62      1.0000 0.49152  0.08868  0.04925  Biso   1.000  H 
  H63      1.0000 0.42741  0.12615  0.00665  Biso   1.000  H 
  B184     1.0000 0.84640  0.65360  0.50000  Biso   1.000  B 
  B185     1.0000 0.90471  0.67046  0.50000  Biso   1.000  B 
  B186     1.0000 0.82954  0.59529  0.50000  Biso   1.000  B 
  B187     1.0000 0.79500  0.70500  0.50000  Biso   1.000  B 
  B188     1.0000 0.73249  0.68437  0.50000  Biso   1.000  B 
  B189     1.0000 0.72128  0.63046  0.50000  Biso   1.000  B 
  O10      1.0000 0.62146  0.71504  0.47375  Biso   1.000  O 
  B190     1.0000 0.68442  0.73248  0.50000  Biso   1.000  B 
  B191     1.0000 0.70500  0.79499  0.50000  Biso   1.000  B 
  B192     1.0000 0.76751  0.81558  0.50000  Biso   1.000  B 
  B193     1.0000 0.81563  0.76751  0.50000  Biso   1.000  B 
  B194     1.0000 0.86954  0.77872  0.50000  Biso   1.000  B 
  B195     1.0000 0.77872  0.86949  0.50000  Biso   1.000  B 
  B196     1.0000 0.67046  0.90470  0.50000  Biso   1.000  B 
  B197     1.0000 0.65360  0.84639  0.50000  Biso   1.000  B 
  B198     1.0000 0.59529  0.82953  0.50000  Biso   1.000  B 
  C28      1.0000 0.58112  0.69079  0.52298  Biso   1.000  C 
  C29      1.0000 0.51606  0.67793  0.49157  Biso   1.000  C 
  H64      1.0000 0.57539  0.72624  0.56286  Biso   1.000  H 
  H65      1.0000 0.60233  0.64474  0.54310  Biso   1.000  H 
  H66      1.0000 0.48774  0.72357  0.48707  Biso   1.000  H 
  C30      1.0000 0.48002  0.62807  0.53255  Biso   1.000  C 
  H67      1.0000 0.52338  0.65377  0.44359  Biso   1.000  H 
  H68      1.0000 0.47033  0.64396  0.58257  Biso   1.000  H 
  H69      1.0000 0.50376  0.58132  0.53268  Biso   1.000  H 
  H70      1.0000 0.43240  0.62279  0.50901  Biso   1.000  H 
  B199     1.0000 0.34640  0.15360  0.50000  Biso   1.000  B 
  B200     1.0000 0.40471  0.17046  0.50000  Biso   1.000  B 
  B201     1.0000 0.32954  0.09529  0.50000  Biso   1.000  B 
  B202     1.0000 0.29500  0.20500  0.50000  Biso   1.000  B 
  B203     1.0000 0.23249  0.18437  0.50000  Biso   1.000  B 
  B204     1.0000 0.22128  0.13046  0.50000  Biso   1.000  B 
  O11      1.0000 0.11943  0.21338  0.48053  Biso   1.000  O 
  B205     1.0000 0.18442  0.23249  0.50000  Biso   1.000  B 
  B206     1.0000 0.20500  0.29500  0.50000  Biso   1.000  B 
  B207     1.0000 0.26751  0.31558  0.50000  Biso   1.000  B 
  B208     1.0000 0.31563  0.26751  0.50000  Biso   1.000  B 
  B209     1.0000 0.36954  0.27872  0.50000  Biso   1.000  B 
  B210     1.0000 0.27872  0.36949  0.50000  Biso   1.000  B 
  B211     1.0000 0.17046  0.40470  0.50000  Biso   1.000  B 
  B212     1.0000 0.15360  0.34640  0.50000  Biso   1.000  B 
  B213     1.0000 0.09529  0.32954  0.50000  Biso   1.000  B 
  C31      1.0000 0.08004  0.19858  0.53392  Biso   1.000  C 
  C32      1.0000 0.01014  0.18624  0.50889  Biso   1.000  C 
  H71      1.0000 0.08040  0.23903  0.57085  Biso   1.000  H 
  H72      1.0000 0.09832  0.15484  0.55825  Biso   1.000  H 
  H73      1.0000 0.97702  0.22872  0.51121  Biso   1.000  H 
  C33      1.0000 0.97750  0.13255  0.54370  Biso   1.000  C 
  H74      1.0000 0.01706  0.17227  0.45658  Biso   1.000  H 
  H75      1.0000 0.95687  0.14438  0.59115  Biso   1.000  H 
  H76      1.0000 0.00795  0.09046  0.54903  Biso   1.000  H 
  H77      1.0000 0.93632  0.12161  0.51438  Biso   1.000  H 
  B214     1.0000 0.34640  0.65360  0.00000  Biso   1.000  B 
  B215     1.0000 0.40471  0.67046  0.00000  Biso   1.000  B 
  B216     1.0000 0.32954  0.59529  0.00000  Biso   1.000  B 
  B217     1.0000 0.29500  0.70500  0.00000  Biso   1.000  B 
  B218     1.0000 0.23249  0.68437  0.00000  Biso   1.000  B 
  B219     1.0000 0.22128  0.63046  0.00000  Biso   1.000  B 
  O12      1.0000 0.12068  0.71303  0.98232  Biso   1.000  O 
  B220     1.0000 0.18442  0.73248  0.00000  Biso   1.000  B 
  B221     1.0000 0.20500  0.79499  0.00000  Biso   1.000  B 
  B222     1.0000 0.26751  0.81558  0.00000  Biso   1.000  B 
  B223     1.0000 0.31563  0.76751  0.00000  Biso   1.000  B 
  B224     1.0000 0.36954  0.77872  0.00000  Biso   1.000  B 
  B225     1.0000 0.27872  0.86949  0.00000  Biso   1.000  B 
  B226     1.0000 0.17046  0.90470  0.00000  Biso   1.000  B 
  B227     1.0000 0.15360  0.84639  0.00000  Biso   1.000  B 
  B228     1.0000 0.09529  0.82953  0.00000  Biso   1.000  B 
  C34      1.0000 0.08391  0.68911  0.03447  Biso   1.000  C 
  C35      1.0000 0.01459  0.68160  0.00718  Biso   1.000  C 
  H78      1.0000 0.08468  0.72330  0.07450  Biso   1.000  H 
  H79      1.0000 0.10450  0.64205  0.05021  Biso   1.000  H 
  H80      1.0000 0.98986  0.72966  0.01286  Biso   1.000  H 
  C36      1.0000 0.96855  0.62877  0.03116  Biso   1.000  C 
  H81      1.0000 0.02067  0.67099  0.95564  Biso   1.000  H 
  H82      1.0000 0.95768  0.63787  0.08168  Biso   1.000  H 
  H83      1.0000 0.98911  0.58135  0.02473  Biso   1.000  H 
  H84      1.0000 0.92294  0.63343  0.00379  Biso   1.000  H 
  B229     1.0000 0.84640  0.84640  0.00000  Biso   1.000  B 
  B230     1.0000 0.90471  0.82954  0.00000  Biso   1.000  B 
  B231     1.0000 0.82954  0.90471  0.00000  Biso   1.000  B 
  B232     1.0000 0.79500  0.79500  0.00000  Biso   1.000  B 
  B233     1.0000 0.73249  0.81563  0.00000  Biso   1.000  B 
  B234     1.0000 0.72128  0.86954  0.00000  Biso   1.000  B 
  O13      1.0000 0.61793  0.78549  0.00319  Biso   1.000  O 
  B235     1.0000 0.68442  0.76752  0.00000  Biso   1.000  B 
  B236     1.0000 0.70500  0.70501  0.00000  Biso   1.000  B 
  B237     1.0000 0.76751  0.68442  0.00000  Biso   1.000  B 
  B238     1.0000 0.81563  0.73249  0.00000  Biso   1.000  B 
  B239     1.0000 0.86954  0.72128  0.00000  Biso   1.000  B 
  B240     1.0000 0.77872  0.63051  0.00000  Biso   1.000  B 
  B241     1.0000 0.67046  0.59530  0.00000  Biso   1.000  B 
  B242     1.0000 0.65360  0.65361  0.00000  Biso   1.000  B 
  B243     1.0000 0.59529  0.67047  0.00000  Biso   1.000  B 
  C37      1.0000 0.59865  0.81381  0.94453  Biso   1.000  C 
  C38      1.0000 0.53910  0.85488  0.95724  Biso   1.000  C 
  H85      1.0000 0.58715  0.77285  0.91284  Biso   1.000  H 
  H86      1.0000 0.63647  0.84338  0.92184  Biso   1.000  H 
  H87      1.0000 0.49534  0.82683  0.96898  Biso   1.000  H 
  C39      1.0000 0.52530  0.90206  0.90361  Biso   1.000  C 
  H88      1.0000 0.55072  0.88417  0.00083  Biso   1.000  H 
  H89      1.0000 0.56027  0.89877  0.86166  Biso   1.000  H 
  H90      1.0000 0.52797  0.95212  0.92142  Biso   1.000  H 
  H91      1.0000 0.47657  0.89463  0.88445  Biso   1.000  H 
  B244     1.0000 0.84640  0.34640  0.50000  Biso   1.000  B 
  B245     1.0000 0.90471  0.32954  0.50000  Biso   1.000  B 
  B246     1.0000 0.82954  0.40471  0.50000  Biso   1.000  B 
  B247     1.0000 0.79500  0.29500  0.50000  Biso   1.000  B 
  B248     1.0000 0.73249  0.31563  0.50000  Biso   1.000  B 
  B249     1.0000 0.72128  0.36954  0.50000  Biso   1.000  B 
  O14      1.0000 0.61935  0.28705  0.51265  Biso   1.000  O 
  B250     1.0000 0.68442  0.26751  0.50000  Biso   1.000  B 
  B251     1.0000 0.70500  0.20500  0.50000  Biso   1.000  B 
  B252     1.0000 0.76751  0.18442  0.50000  Biso   1.000  B 
  B253     1.0000 0.81563  0.23249  0.50000  Biso   1.000  B 
  B254     1.0000 0.86954  0.22128  0.50000  Biso   1.000  B 
  B255     1.0000 0.77872  0.13051  0.50000  Biso   1.000  B 
  B256     1.0000 0.67046  0.09530  0.50000  Biso   1.000  B 
  B257     1.0000 0.65360  0.15360  0.50000  Biso   1.000  B 
  B258     1.0000 0.59529  0.17046  0.50000  Biso   1.000  B 
  C40      1.0000 0.59788  0.32037  0.45607  Biso   1.000  C 
  C41      1.0000 0.53237  0.35557  0.46713  Biso   1.000  C 
  H92      1.0000 0.58891  0.28279  0.41864  Biso   1.000  H 
  H93      1.0000 0.63248  0.35595  0.43761  Biso   1.000  H 
  H94      1.0000 0.49200  0.31938  0.47084  Biso   1.000  H 
  C42      1.0000 0.51695  0.40605  0.41663  Biso   1.000  C 
  H95      1.0000 0.53405  0.38121  0.51418  Biso   1.000  H 
  H96      1.0000 0.55742  0.40774  0.37982  Biso   1.000  H 
  H97      1.0000 0.51526  0.45386  0.43935  Biso   1.000  H 
  H98      1.0000 0.46912  0.39597  0.39507  Biso   1.000  H 
  B259     1.0000 0.34640  0.84640  0.50000  Biso   1.000  B 
  B260     1.0000 0.40471  0.82954  0.50000  Biso   1.000  B 
  B261     1.0000 0.32954  0.90471  0.50000  Biso   1.000  B 
  B262     1.0000 0.29500  0.79500  0.50000  Biso   1.000  B 
  B263     1.0000 0.23249  0.81563  0.50000  Biso   1.000  B 
  B264     1.0000 0.22128  0.86954  0.50000  Biso   1.000  B 
  O15      1.0000 0.11834  0.78579  0.51479  Biso   1.000  O 
  B265     1.0000 0.18442  0.76752  0.50000  Biso   1.000  B 
  B266     1.0000 0.20500  0.70501  0.50000  Biso   1.000  B 
  B267     1.0000 0.26751  0.68442  0.50000  Biso   1.000  B 
  B268     1.0000 0.31563  0.73249  0.50000  Biso   1.000  B 
  B269     1.0000 0.36954  0.72128  0.50000  Biso   1.000  B 
  B270     1.0000 0.27872  0.63051  0.50000  Biso   1.000  B 
  B271     1.0000 0.17046  0.59530  0.50000  Biso   1.000  B 
  B272     1.0000 0.15360  0.65361  0.50000  Biso   1.000  B 
  B273     1.0000 0.09529  0.67047  0.50000  Biso   1.000  B 
  C43      1.0000 0.09156  0.80368  0.45216  Biso   1.000  C 
  C44      1.0000 0.11896  0.86885  0.42310  Biso   1.000  C 
  H99      1.0000 0.03946  0.81027  0.46088  Biso   1.000  H 
  H100     1.0000 0.09671  0.76423  0.41606  Biso   1.000  H 
  H101     1.0000 0.11232  0.90590  0.46109  Biso   1.000  H 
  C45      1.0000 0.07773  0.89257  0.36903  Biso   1.000  C 
  H102     1.0000 0.17020  0.86815  0.40434  Biso   1.000  H 
  H103     1.0000 0.09465  0.86577  0.32540  Biso   1.000  H 
  H104     1.0000 0.08082  0.94547  0.36253  Biso   1.000  H 
  H105     1.0000 0.02525  0.88097  0.37943  Biso   1.000  H 
  B274     1.0000 0.34640  0.34640  0.00000  Biso   1.000  B 
  B275     1.0000 0.40471  0.32954  0.00000  Biso   1.000  B 
  B276     1.0000 0.32954  0.40471  0.00000  Biso   1.000  B 
  B277     1.0000 0.29500  0.29500  0.00000  Biso   1.000  B 
  B278     1.0000 0.23249  0.31563  0.00000  Biso   1.000  B 
  B279     1.0000 0.22128  0.36954  0.00000  Biso   1.000  B 
  O16      1.0000 0.11850  0.28622  0.01024  Biso   1.000  O 
  B280     1.0000 0.18442  0.26751  0.00000  Biso   1.000  B 
  B281     1.0000 0.20500  0.20500  0.00000  Biso   1.000  B 
  B282     1.0000 0.26751  0.18442  0.00000  Biso   1.000  B 
  B283     1.0000 0.31563  0.23249  0.00000  Biso   1.000  B 
  B284     1.0000 0.36954  0.22128  0.00000  Biso   1.000  B 
  B285     1.0000 0.27872  0.13051  0.00000  Biso   1.000  B 
  B286     1.0000 0.17046  0.09530  0.00000  Biso   1.000  B 
  B287     1.0000 0.15360  0.15360  0.00000  Biso   1.000  B 
  B288     1.0000 0.09529  0.17046  0.00000  Biso   1.000  B 
  C46      1.0000 0.09755  0.31704  0.95408  Biso   1.000  C 
  C47      1.0000 0.03591  0.35320  0.96786  Biso   1.000  C 
  H106     1.0000 0.08916  0.28041  0.91599  Biso   1.000  H 
  H107     1.0000 0.13351  0.35338  0.93875  Biso   1.000  H 
  H108     1.0000 0.99429  0.32075  0.97122  Biso   1.000  H 
  C48      1.0000 0.02388  0.39968  0.91334  Biso   1.000  C 
  H109     1.0000 0.04137  0.37776  0.01482  Biso   1.000  H 
  H110     1.0000 0.05775  0.39586  0.87177  Biso   1.000  H 
  H111     1.0000 0.03183  0.44667  0.93433  Biso   1.000  H 
  H112     1.0000 0.97389  0.39508  0.89341  Biso   1.000  H 
  B289     1.0000 0.00000  0.84640  0.15360  Biso   1.000  B 
  B290     1.0000 0.00000  0.90471  0.17046  Biso   1.000  B 
  B291     1.0000 0.00000  0.82954  0.09529  Biso   1.000  B 
  B292     1.0000 0.00000  0.79500  0.20500  Biso   1.000  B 
  B293     1.0000 0.00000  0.73249  0.18437  Biso   1.000  B 
  B294     1.0000 0.00000  0.72128  0.13046  Biso   1.000  B 
  O17      1.0000 0.97488  0.62286  0.21462  Biso   1.000  O 
  B295     1.0000 0.00000  0.68442  0.23249  Biso   1.000  B 
  B296     1.0000 0.00000  0.70500  0.29500  Biso   1.000  B 
  B297     1.0000 0.00000  0.76751  0.31558  Biso   1.000  B 
  B298     1.0000 0.00000  0.81563  0.26751  Biso   1.000  B 
  B299     1.0000 0.00000  0.86954  0.27872  Biso   1.000  B 
  B300     1.0000 0.00000  0.77872  0.36949  Biso   1.000  B 
  B301     1.0000 0.00000  0.67046  0.40470  Biso   1.000  B 
  B302     1.0000 0.00000  0.65360  0.34640  Biso   1.000  B 
  B303     1.0000 0.00000  0.59529  0.32954  Biso   1.000  B 
  C49      1.0000 0.02300  0.58065  0.19110  Biso   1.000  C 
  C50      1.0000 0.98930  0.51931  0.16579  Biso   1.000  C 
  H113     1.0000 0.05582  0.56727  0.22910  Biso   1.000  H 
  H114     1.0000 0.05051  0.60553  0.15182  Biso   1.000  H 
  H115     1.0000 0.97492  0.48998  0.20808  Biso   1.000  H 
  C51      1.0000 0.02341  0.47519  0.11343  Biso   1.000  C 
  H116     1.0000 0.94488  0.53860  0.14323  Biso   1.000  H 
  H117     1.0000 0.07490  0.47088  0.12535  Biso   1.000  H 
  H118     1.0000 0.01716  0.49415  0.06556  Biso   1.000  H 
  H119     1.0000 0.00180  0.42691  0.11709  Biso   1.000  H 
  B304     1.0000 0.00000  0.34640  0.65360  Biso   1.000  B 
  B305     1.0000 0.00000  0.40471  0.67046  Biso   1.000  B 
  B306     1.0000 0.00000  0.32954  0.59529  Biso   1.000  B 
  B307     1.0000 0.00000  0.29500  0.70500  Biso   1.000  B 
  B308     1.0000 0.00000  0.23249  0.68437  Biso   1.000  B 
  B309     1.0000 0.00000  0.22128  0.63046  Biso   1.000  B 
  O18      1.0000 0.97740  0.11920  0.71471  Biso   1.000  O 
  B310     1.0000 0.00000  0.18442  0.73248  Biso   1.000  B 
  B311     1.0000 0.00000  0.20500  0.79499  Biso   1.000  B 
  B312     1.0000 0.00000  0.26751  0.81558  Biso   1.000  B 
  B313     1.0000 0.00000  0.31563  0.76751  Biso   1.000  B 
  B314     1.0000 0.00000  0.36954  0.77872  Biso   1.000  B 
  B315     1.0000 0.00000  0.27872  0.86949  Biso   1.000  B 
  B316     1.0000 0.00000  0.17046  0.90470  Biso   1.000  B 
  B317     1.0000 0.00000  0.15360  0.84639  Biso   1.000  B 
  B318     1.0000 0.00000  0.09529  0.82953  Biso   1.000  B 
  C52      1.0000 0.03201  0.08359  0.69840  Biso   1.000  C 
  C53      1.0000 0.01296  0.01178  0.69365  Biso   1.000  C 
  H120     1.0000 0.07137  0.08848  0.73426  Biso   1.000  H 
  H121     1.0000 0.04996  0.10166  0.64906  Biso   1.000  H 
  H122     1.0000 0.01545  0.98657  0.74107  Biso   1.000  H 
  C54      1.0000 0.04344  0.97827  0.63568  Biso   1.000  C 
  H123     1.0000 0.96224  0.01249  0.67881  Biso   1.000  H 
  H124     1.0000 0.09541  0.97330  0.63537  Biso   1.000  H 
  H125     1.0000 0.02951  0.00320  0.59177  Biso   1.000  H 
  H126     1.0000 0.02474  0.92813  0.63159  Biso   1.000  H 
  B319     1.0000 0.50000  0.84640  0.65360  Biso   1.000  B 
  B320     1.0000 0.50000  0.90471  0.67046  Biso   1.000  B 
  B321     1.0000 0.50000  0.82954  0.59529  Biso   1.000  B 
  B322     1.0000 0.50000  0.79500  0.70500  Biso   1.000  B 
  B323     1.0000 0.50000  0.73249  0.68437  Biso   1.000  B 
  B324     1.0000 0.50000  0.72128  0.63046  Biso   1.000  B 
  O19      1.0000 0.48296  0.62001  0.71193  Biso   1.000  O 
  B325     1.0000 0.50000  0.68442  0.73248  Biso   1.000  B 
  B326     1.0000 0.50000  0.70500  0.79499  Biso   1.000  B 
  B327     1.0000 0.50000  0.76751  0.81558  Biso   1.000  B 
  B328     1.0000 0.50000  0.81563  0.76751  Biso   1.000  B 
  B329     1.0000 0.50000  0.86954  0.77872  Biso   1.000  B 
  B330     1.0000 0.50000  0.77872  0.86949  Biso   1.000  B 
  B331     1.0000 0.50000  0.67046  0.90470  Biso   1.000  B 
  B332     1.0000 0.50000  0.65360  0.84639  Biso   1.000  B 
  B333     1.0000 0.50000  0.59529  0.82953  Biso   1.000  B 
  C55      1.0000 0.53692  0.58312  0.69294  Biso   1.000  C 
  C56      1.0000 0.50654  0.51494  0.68521  Biso   1.000  C 
  H127     1.0000 0.57726  0.58381  0.72942  Biso   1.000  H 
  H128     1.0000 0.55401  0.60128  0.64480  Biso   1.000  H 
  H129     1.0000 0.50211  0.49207  0.73362  Biso   1.000  H 
  C57      1.0000 0.53698  0.47032  0.63935  Biso   1.000  C 
  H130     1.0000 0.45846  0.52498  0.66474  Biso   1.000  H 
  H131     1.0000 0.57882  0.44382  0.66030  Biso   1.000  H 
  H132     1.0000 0.55065  0.49630  0.59664  Biso   1.000  H 
  H133     1.0000 0.50255  0.43473  0.62435  Biso   1.000  H 
  B334     1.0000 0.50000  0.34640  0.15360  Biso   1.000  B 
  B335     1.0000 0.50000  0.40471  0.17046  Biso   1.000  B 
  B336     1.0000 0.50000  0.32954  0.09529  Biso   1.000  B 
  B337     1.0000 0.50000  0.29500  0.20500  Biso   1.000  B 
  B338     1.0000 0.50000  0.23249  0.18437  Biso   1.000  B 
  B339     1.0000 0.50000  0.22128  0.13046  Biso   1.000  B 
  O20      1.0000 0.48006  0.11974  0.21153  Biso   1.000  O 
  B340     1.0000 0.50000  0.18442  0.23249  Biso   1.000  B 
  B341     1.0000 0.50000  0.20500  0.29500  Biso   1.000  B 
  B342     1.0000 0.50000  0.26751  0.31558  Biso   1.000  B 
  B343     1.0000 0.50000  0.31563  0.26751  Biso   1.000  B 
  B344     1.0000 0.50000  0.36954  0.27872  Biso   1.000  B 
  B345     1.0000 0.50000  0.27872  0.36949  Biso   1.000  B 
  B346     1.0000 0.50000  0.17046  0.40470  Biso   1.000  B 
  B347     1.0000 0.50000  0.15360  0.34640  Biso   1.000  B 
  B348     1.0000 0.50000  0.09529  0.32954  Biso   1.000  B 
  C58      1.0000 0.53116  0.08074  0.19520  Biso   1.000  C 
  C59      1.0000 0.49829  0.01494  0.18159  Biso   1.000  C 
  H134     1.0000 0.56915  0.08144  0.23386  Biso   1.000  H 
  H135     1.0000 0.55442  0.09730  0.15028  Biso   1.000  H 
  H136     1.0000 0.49631  0.98720  0.22729  Biso   1.000  H 
  C60      1.0000 0.52664  0.97016  0.13322  Biso   1.000  C 
  H137     1.0000 0.44902  0.02684  0.16586  Biso   1.000  H 
  H138     1.0000 0.57185  0.94343  0.14931  Biso   1.000  H 
  H139     1.0000 0.54183  0.99964  0.09078  Biso   1.000  H 
  H140     1.0000 0.48845  0.93425  0.12358  Biso   1.000  H 
  B349     1.0000 0.00000  0.84640  0.84640  Biso   1.000  B 
  B350     1.0000 0.00000  0.90471  0.82954  Biso   1.000  B 
  B351     1.0000 0.00000  0.82954  0.90471  Biso   1.000  B 
  B352     1.0000 0.00000  0.79500  0.79500  Biso   1.000  B 
  B353     1.0000 0.00000  0.73249  0.81563  Biso   1.000  B 
  B354     1.0000 0.00000  0.72128  0.86954  Biso   1.000  B 
  O21      1.0000 0.00747  0.61823  0.78692  Biso   1.000  O 
  B355     1.0000 0.00000  0.68442  0.76752  Biso   1.000  B 
  B356     1.0000 0.00000  0.70500  0.70501  Biso   1.000  B 
  B357     1.0000 0.00000  0.76751  0.68442  Biso   1.000  B 
  B358     1.0000 0.00000  0.81563  0.73249  Biso   1.000  B 
  B359     1.0000 0.00000  0.86954  0.72128  Biso   1.000  B 
  B360     1.0000 0.00000  0.77872  0.63051  Biso   1.000  B 
  B361     1.0000 0.00000  0.67046  0.59530  Biso   1.000  B 
  B362     1.0000 0.00000  0.65360  0.65361  Biso   1.000  B 
  B363     1.0000 0.00000  0.59529  0.67047  Biso   1.000  B 
  C61      1.0000 0.95241  0.59799  0.81739  Biso   1.000  C 
  C62      1.0000 0.97157  0.53102  0.84592  Biso   1.000  C 
  H141     1.0000 0.91111  0.59400  0.78244  Biso   1.000  H 
  H142     1.0000 0.93940  0.63185  0.85565  Biso   1.000  H 
  H143     1.0000 0.97048  0.49067  0.81155  Biso   1.000  H 
  C63      1.0000 0.92380  0.51867  0.89857  Biso   1.000  C 
  H144     1.0000 0.02226  0.53605  0.86533  Biso   1.000  H 
  H145     1.0000 0.88737  0.55654  0.91015  Biso   1.000  H 
  H146     1.0000 0.95499  0.51043  0.94090  Biso   1.000  H 
  H147     1.0000 0.89717  0.47484  0.88520  Biso   1.000  H 
  B364     1.0000 0.00000  0.34640  0.34640  Biso   1.000  B 
  B365     1.0000 0.00000  0.40471  0.32954  Biso   1.000  B 
  B366     1.0000 0.00000  0.32954  0.40471  Biso   1.000  B 
  B367     1.0000 0.00000  0.29500  0.29500  Biso   1.000  B 
  B368     1.0000 0.00000  0.23249  0.31563  Biso   1.000  B 
  B369     1.0000 0.00000  0.22128  0.36954  Biso   1.000  B 
  O22      1.0000 0.00210  0.11809  0.28758  Biso   1.000  O 
  B370     1.0000 0.00000  0.18442  0.26751  Biso   1.000  B 
  B371     1.0000 0.00000  0.20500  0.20500  Biso   1.000  B 
  B372     1.0000 0.00000  0.26751  0.18442  Biso   1.000  B 
  B373     1.0000 0.00000  0.31563  0.23249  Biso   1.000  B 
  B374     1.0000 0.00000  0.36954  0.22128  Biso   1.000  B 
  B375     1.0000 0.00000  0.27872  0.13051  Biso   1.000  B 
  B376     1.0000 0.00000  0.17046  0.09530  Biso   1.000  B 
  B377     1.0000 0.00000  0.15360  0.15360  Biso   1.000  B 
  B378     1.0000 0.00000  0.09529  0.17046  Biso   1.000  B 
  C64      1.0000 0.94113  0.10100  0.31246  Biso   1.000  C 
  C65      1.0000 0.95532  0.05274  0.36978  Biso   1.000  C 
  H148     1.0000 0.91271  0.08323  0.26966  Biso   1.000  H 
  H149     1.0000 0.91462  0.14174  0.33339  Biso   1.000  H 
  H150     1.0000 0.97981  0.01079  0.34736  Biso   1.000  H 
  C66      1.0000 0.89729  0.02674  0.40419  Biso   1.000  C 
  H151     1.0000 0.98889  0.07312  0.40707  Biso   1.000  H 
  H152     1.0000 0.85681  0.05907  0.39410  Biso   1.000  H 
  H153     1.0000 0.90129  0.02592  0.45648  Biso   1.000  H 
  H154     1.0000 0.89004  0.97693  0.38307  Biso   1.000  H 
  B379     1.0000 0.50000  0.84640  0.34640  Biso   1.000  B 
  B380     1.0000 0.50000  0.90471  0.32954  Biso   1.000  B 
  B381     1.0000 0.50000  0.82954  0.40471  Biso   1.000  B 
  B382     1.0000 0.50000  0.79500  0.29500  Biso   1.000  B 
  B383     1.0000 0.50000  0.73249  0.31563  Biso   1.000  B 
  B384     1.0000 0.50000  0.72128  0.36954  Biso   1.000  B 
  O23      1.0000 0.51210  0.61841  0.28694  Biso   1.000  O 
  B385     1.0000 0.50000  0.68442  0.26751  Biso   1.000  B 
  B386     1.0000 0.50000  0.70500  0.20500  Biso   1.000  B 
  B387     1.0000 0.50000  0.76751  0.18442  Biso   1.000  B 
  B388     1.0000 0.50000  0.81563  0.23249  Biso   1.000  B 
  B389     1.0000 0.50000  0.86954  0.22128  Biso   1.000  B 
  B390     1.0000 0.50000  0.77872  0.13051  Biso   1.000  B 
  B391     1.0000 0.50000  0.67046  0.09530  Biso   1.000  B 
  B392     1.0000 0.50000  0.65360  0.15360  Biso   1.000  B 
  B393     1.0000 0.50000  0.59529  0.17046  Biso   1.000  B 
  C67      1.0000 0.45457  0.59884  0.31653  Biso   1.000  C 
  C68      1.0000 0.46969  0.54290  0.36414  Biso   1.000  C 
  H155     1.0000 0.41900  0.58640  0.27859  Biso   1.000  H 
  H156     1.0000 0.43383  0.63644  0.34735  Biso   1.000  H 
  H157     1.0000 0.47820  0.49809  0.33707  Biso   1.000  H 
  C69      1.0000 0.41339  0.53181  0.41136  Biso   1.000  C 
  H158     1.0000 0.51479  0.55297  0.39210  Biso   1.000  H 
  H159     1.0000 0.38130  0.57315  0.41450  Biso   1.000  H 
  H160     1.0000 0.43607  0.52581  0.45944  Biso   1.000  H 
  H161     1.0000 0.38541  0.48859  0.39673  Biso   1.000  H 
  B394     1.0000 0.50000  0.34640  0.84640  Biso   1.000  B 
  B395     1.0000 0.50000  0.40471  0.82954  Biso   1.000  B 
  B396     1.0000 0.50000  0.32954  0.90471  Biso   1.000  B 
  B397     1.0000 0.50000  0.29500  0.79500  Biso   1.000  B 
  B398     1.0000 0.50000  0.23249  0.81563  Biso   1.000  B 
  B399     1.0000 0.50000  0.22128  0.86954  Biso   1.000  B 
  O24      1.0000 0.51501  0.11934  0.78454  Biso   1.000  O 
  B400     1.0000 0.50000  0.18442  0.76752  Biso   1.000  B 
  B401     1.0000 0.50000  0.20500  0.70501  Biso   1.000  B 
  B402     1.0000 0.50000  0.26751  0.68442  Biso   1.000  B 
  B403     1.0000 0.50000  0.31563  0.73249  Biso   1.000  B 
  B404     1.0000 0.50000  0.36954  0.72128  Biso   1.000  B 
  B405     1.0000 0.50000  0.27872  0.63051  Biso   1.000  B 
  B406     1.0000 0.50000  0.17046  0.59530  Biso   1.000  B 
  B407     1.0000 0.50000  0.15360  0.65361  Biso   1.000  B 
  B408     1.0000 0.50000  0.09529  0.67047  Biso   1.000  B 
  C70      1.0000 0.45496  0.09513  0.81011  Biso   1.000  C 
  C71      1.0000 0.47153  0.04024  0.85895  Biso   1.000  C 
  H162     1.0000 0.42790  0.07559  0.76872  Biso   1.000  H 
  H163     1.0000 0.42585  0.13039  0.83659  Biso   1.000  H 
  H164     1.0000 0.48586  0.99797  0.83017  Biso   1.000  H 
  C72      1.0000 0.41843  0.02161  0.90635  Biso   1.000  C 
  H165     1.0000 0.51401  0.05656  0.88675  Biso   1.000  H 
  H166     1.0000 0.38433  0.06012  0.91336  Biso   1.000  H 
  H167     1.0000 0.44335  0.01508  0.95446  Biso   1.000  H 
  H168     1.0000 0.39255  0.97619  0.89099  Biso   1.000  H 
