data_image0
_cell_length_a       26.896
_cell_length_b       26.896
_cell_length_c       26.896
_cell_angle_alpha    90
_cell_angle_beta     90
_cell_angle_gamma    90

_symmetry_space_group_name_H-M    "P 1"
_symmetry_int_tables_number       1

loop_
  _symmetry_equiv_pos_as_xyz
  'x, y, z'

loop_
  _atom_site_label
  _atom_site_occupancy
  _atom_site_fract_x
  _atom_site_fract_y
  _atom_site_fract_z
  _atom_site_thermal_displace_type
  _atom_site_B_iso_or_equiv
  _atom_site_type_symbol
  B1       1.0000 0.09204  0.00000  0.00000  Biso   1.000  B 
  B2       1.0000 0.90796  0.00000  0.00000  Biso   1.000  B 
  B3       1.0000 0.00000  0.09204  0.00000  Biso   1.000  B 
  B4       1.0000 0.00000  0.90796  0.00000  Biso   1.000  B 
  B5       1.0000 0.00000  0.00000  0.09204  Biso   1.000  B 
  B6       1.0000 0.00000  0.00000  0.90796  Biso   1.000  B 
  B7       1.0000 0.09204  0.50000  0.50000  Biso   1.000  B 
  B8       1.0000 0.90796  0.50000  0.50000  Biso   1.000  B 
  B9       1.0000 0.00000  0.59204  0.50000  Biso   1.000  B 
  B10      1.0000 0.00000  0.40796  0.50000  Biso   1.000  B 
  B11      1.0000 0.00000  0.50000  0.59204  Biso   1.000  B 
  B12      1.0000 0.00000  0.50000  0.40796  Biso   1.000  B 
  B13      1.0000 0.59204  0.00000  0.50000  Biso   1.000  B 
  B14      1.0000 0.40796  0.00000  0.50000  Biso   1.000  B 
  B15      1.0000 0.50000  0.09204  0.50000  Biso   1.000  B 
  B16      1.0000 0.50000  0.90796  0.50000  Biso   1.000  B 
  B17      1.0000 0.50000  0.00000  0.59204  Biso   1.000  B 
  B18      1.0000 0.50000  0.00000  0.40796  Biso   1.000  B 
  B19      1.0000 0.59204  0.50000  0.00000  Biso   1.000  B 
  B20      1.0000 0.40796  0.50000  0.00000  Biso   1.000  B 
  B21      1.0000 0.50000  0.59204  0.00000  Biso   1.000  B 
  B22      1.0000 0.50000  0.40796  0.00000  Biso   1.000  B 
  B23      1.0000 0.50000  0.50000  0.09204  Biso   1.000  B 
  B24      1.0000 0.50000  0.50000  0.90796  Biso   1.000  B 
  B25      1.0000 0.04540  0.04540  0.04540  Biso   1.000  B 
  B26      1.0000 0.95460  0.95460  0.04540  Biso   1.000  B 
  B27      1.0000 0.95460  0.04540  0.95460  Biso   1.000  B 
  B28      1.0000 0.04540  0.95460  0.95460  Biso   1.000  B 
  B29      1.0000 0.04540  0.04540  0.95460  Biso   1.000  B 
  B30      1.0000 0.95460  0.95460  0.95460  Biso   1.000  B 
  B31      1.0000 0.04540  0.95460  0.04540  Biso   1.000  B 
  B32      1.0000 0.95460  0.04540  0.04540  Biso   1.000  B 
  B33      1.0000 0.04540  0.54540  0.54540  Biso   1.000  B 
  B34      1.0000 0.95460  0.45460  0.54540  Biso   1.000  B 
  B35      1.0000 0.95460  0.54540  0.45460  Biso   1.000  B 
  B36      1.0000 0.04540  0.45460  0.45460  Biso   1.000  B 
  B37      1.0000 0.04540  0.54540  0.45460  Biso   1.000  B 
  B38      1.0000 0.95460  0.45460  0.45460  Biso   1.000  B 
  B39      1.0000 0.04540  0.45460  0.54540  Biso   1.000  B 
  B40      1.0000 0.95460  0.54540  0.54540  Biso   1.000  B 
  B41      1.0000 0.54540  0.04540  0.54540  Biso   1.000  B 
  B42      1.0000 0.45460  0.95460  0.54540  Biso   1.000  B 
  B43      1.0000 0.45460  0.04540  0.45460  Biso   1.000  B 
  B44      1.0000 0.54540  0.95460  0.45460  Biso   1.000  B 
  B45      1.0000 0.54540  0.04540  0.45460  Biso   1.000  B 
  B46      1.0000 0.45460  0.95460  0.45460  Biso   1.000  B 
  B47      1.0000 0.54540  0.95460  0.54540  Biso   1.000  B 
  B48      1.0000 0.45460  0.04540  0.54540  Biso   1.000  B 
  B49      1.0000 0.54540  0.54540  0.04540  Biso   1.000  B 
  B50      1.0000 0.45460  0.45460  0.04540  Biso   1.000  B 
  B51      1.0000 0.45460  0.54540  0.95460  Biso   1.000  B 
  B52      1.0000 0.54540  0.45460  0.95460  Biso   1.000  B 
  B53      1.0000 0.54540  0.54540  0.95460  Biso   1.000  B 
  B54      1.0000 0.45460  0.45460  0.95460  Biso   1.000  B 
  B55      1.0000 0.54540  0.45460  0.04540  Biso   1.000  B 
  B56      1.0000 0.45460  0.54540  0.04540  Biso   1.000  B 
  B57      1.0000 0.13260  0.00000  0.07190  Biso   1.000  B 
  B58      1.0000 0.11720  0.00000  0.11720  Biso   1.000  B 
  B59      1.0000 0.07190  0.00000  0.13260  Biso   1.000  B 
  B60      1.0000 0.15650  0.00000  0.15650  Biso   1.000  B 
  B61      1.0000 0.20580  0.00000  0.14470  Biso   1.000  B 
  B62      1.0000 0.14470  0.00000  0.20580  Biso   1.000  B 
  B63      1.0000 0.24200  0.00000  0.17950  Biso   1.000  B 
  B64      1.0000 0.21490  0.00000  0.11140  Biso   1.000  B 
  B65      1.0000 0.17950  0.00000  0.24200  Biso   1.000  B 
  B66      1.0000 0.11140  0.00000  0.21490  Biso   1.000  B 
  B67      1.0000 0.23070  0.00000  0.23070  Biso   1.000  B 
  B68      1.0000 0.26930  0.00000  0.26930  Biso   1.000  B 
  B69      1.0000 0.27510  0.00000  0.16950  Biso   1.000  B 
  B70      1.0000 0.32050  0.00000  0.25800  Biso   1.000  B 
  N1       1.0000 0.15809  0.00778  0.29446  Biso   1.000  N 
  B71      1.0000 0.25800  0.00000  0.32050  Biso   1.000  B 
  B72      1.0000 0.35530  0.00000  0.29420  Biso   1.000  B 
  N2       1.0000 0.34113  0.01607  0.20629  Biso   1.000  N 
  B73      1.0000 0.29420  0.00000  0.35530  Biso   1.000  B 
  B74      1.0000 0.22490  0.00000  0.33050  Biso   1.000  B 
  B75      1.0000 0.34350  0.00000  0.34350  Biso   1.000  B 
  B76      1.0000 0.38280  0.00000  0.38280  Biso   1.000  B 
  B77      1.0000 0.38860  0.00000  0.28510  Biso   1.000  B 
  B78      1.0000 0.28510  0.00000  0.38860  Biso   1.000  B 
  B79      1.0000 0.42810  0.00000  0.36740  Biso   1.000  B 
  B80      1.0000 0.36740  0.00000  0.42810  Biso   1.000  B 
  C1       1.0000 0.38214  0.98347  0.18759  Biso   1.000  C 
  C2       1.0000 0.13153  0.05567  0.30064  Biso   1.000  C 
  C3       1.0000 0.41114  0.00276  0.14108  Biso   1.000  C 
  C4       1.0000 0.08601  0.05074  0.33456  Biso   1.000  C 
  H1       1.0000 0.13648  0.97699  0.30466  Biso   1.000  H 
  H2       1.0000 0.35291  0.05301  0.20722  Biso   1.000  H 
  C5       1.0000 0.10191  0.04256  0.38904  Biso   1.000  C 
  H3       1.0000 0.15778  0.08371  0.31590  Biso   1.000  H 
  H4       1.0000 0.36565  0.94764  0.17580  Biso   1.000  H 
  H5       1.0000 0.09030  0.00513  0.40172  Biso   1.000  H 
  H6       1.0000 0.08408  0.07003  0.41356  Biso   1.000  H 
  H7       1.0000 0.14279  0.04669  0.39391  Biso   1.000  H 
  C6       1.0000 0.43872  0.05206  0.14697  Biso   1.000  C 
  H8       1.0000 0.41228  0.08212  0.15674  Biso   1.000  H 
  H9       1.0000 0.45690  0.06218  0.11183  Biso   1.000  H 
  H10      1.0000 0.46702  0.04811  0.17700  Biso   1.000  H 
  H11      1.0000 0.41080  0.97567  0.21570  Biso   1.000  H 
  H12      1.0000 0.11702  0.07012  0.26482  Biso   1.000  H 
  H13      1.0000 0.38418  0.00617  0.11013  Biso   1.000  H 
  H14      1.0000 0.43974  0.97464  0.13004  Biso   1.000  H 
  H15      1.0000 0.06230  0.01926  0.32173  Biso   1.000  H 
  H16      1.0000 0.06417  0.08574  0.33183  Biso   1.000  H 
  B81      1.0000 0.86740  0.00000  0.07190  Biso   1.000  B 
  B82      1.0000 0.88280  0.00000  0.11720  Biso   1.000  B 
  B83      1.0000 0.92810  0.00000  0.13260  Biso   1.000  B 
  B84      1.0000 0.84350  0.00000  0.15650  Biso   1.000  B 
  B85      1.0000 0.79420  0.00000  0.14470  Biso   1.000  B 
  B86      1.0000 0.85530  0.00000  0.20580  Biso   1.000  B 
  B87      1.0000 0.75800  0.00000  0.17950  Biso   1.000  B 
  B88      1.0000 0.78510  0.00000  0.11140  Biso   1.000  B 
  B89      1.0000 0.82050  0.00000  0.24200  Biso   1.000  B 
  B90      1.0000 0.88860  0.00000  0.21490  Biso   1.000  B 
  B91      1.0000 0.76930  0.00000  0.23070  Biso   1.000  B 
  B92      1.0000 0.73070  0.00000  0.26930  Biso   1.000  B 
  B93      1.0000 0.72490  0.00000  0.16950  Biso   1.000  B 
  B94      1.0000 0.67950  0.00000  0.25800  Biso   1.000  B 
  N3       1.0000 0.84191  0.99222  0.29446  Biso   1.000  N 
  B95      1.0000 0.74200  0.00000  0.32050  Biso   1.000  B 
  B96      1.0000 0.64470  0.00000  0.29420  Biso   1.000  B 
  N4       1.0000 0.65887  0.98393  0.20629  Biso   1.000  N 
  B97      1.0000 0.70580  0.00000  0.35530  Biso   1.000  B 
  B98      1.0000 0.77510  0.00000  0.33050  Biso   1.000  B 
  B99      1.0000 0.65650  0.00000  0.34350  Biso   1.000  B 
  B100     1.0000 0.61720  0.00000  0.38280  Biso   1.000  B 
  B101     1.0000 0.61140  0.00000  0.28510  Biso   1.000  B 
  B102     1.0000 0.71490  0.00000  0.38860  Biso   1.000  B 
  B103     1.0000 0.57190  0.00000  0.36740  Biso   1.000  B 
  B104     1.0000 0.63260  0.00000  0.42810  Biso   1.000  B 
  C7       1.0000 0.61786  0.01653  0.18759  Biso   1.000  C 
  C8       1.0000 0.86847  0.94433  0.30064  Biso   1.000  C 
  C9       1.0000 0.58886  0.99724  0.14108  Biso   1.000  C 
  C10      1.0000 0.91399  0.94926  0.33456  Biso   1.000  C 
  H17      1.0000 0.86352  0.02301  0.30466  Biso   1.000  H 
  H18      1.0000 0.64709  0.94699  0.20722  Biso   1.000  H 
  C11      1.0000 0.89809  0.95744  0.38904  Biso   1.000  C 
  H19      1.0000 0.84222  0.91629  0.31590  Biso   1.000  H 
  H20      1.0000 0.63435  0.05236  0.17580  Biso   1.000  H 
  H21      1.0000 0.90970  0.99487  0.40172  Biso   1.000  H 
  H22      1.0000 0.91592  0.92996  0.41356  Biso   1.000  H 
  H23      1.0000 0.85721  0.95331  0.39391  Biso   1.000  H 
  C12      1.0000 0.56128  0.94794  0.14697  Biso   1.000  C 
  H24      1.0000 0.58772  0.91788  0.15674  Biso   1.000  H 
  H25      1.0000 0.54310  0.93782  0.11183  Biso   1.000  H 
  H26      1.0000 0.53298  0.95189  0.17700  Biso   1.000  H 
  H27      1.0000 0.58920  0.02433  0.21570  Biso   1.000  H 
  H28      1.0000 0.88298  0.92988  0.26482  Biso   1.000  H 
  H29      1.0000 0.61582  0.99383  0.11013  Biso   1.000  H 
  H30      1.0000 0.56026  0.02536  0.13004  Biso   1.000  H 
  H31      1.0000 0.93770  0.98074  0.32173  Biso   1.000  H 
  H32      1.0000 0.93583  0.91425  0.33183  Biso   1.000  H 
  B105     1.0000 0.86740  0.00000  0.92810  Biso   1.000  B 
  B106     1.0000 0.88280  0.00000  0.88280  Biso   1.000  B 
  B107     1.0000 0.92810  0.00000  0.86740  Biso   1.000  B 
  B108     1.0000 0.84350  0.00000  0.84350  Biso   1.000  B 
  B109     1.0000 0.79420  0.00000  0.85530  Biso   1.000  B 
  B110     1.0000 0.85530  0.00000  0.79420  Biso   1.000  B 
  B111     1.0000 0.75800  0.00000  0.82050  Biso   1.000  B 
  B112     1.0000 0.78510  0.00000  0.88860  Biso   1.000  B 
  B113     1.0000 0.82050  0.00000  0.75800  Biso   1.000  B 
  B114     1.0000 0.88860  0.00000  0.78510  Biso   1.000  B 
  B115     1.0000 0.76930  0.00000  0.76930  Biso   1.000  B 
  B116     1.0000 0.73070  0.00000  0.73070  Biso   1.000  B 
  B117     1.0000 0.72490  0.00000  0.83050  Biso   1.000  B 
  B118     1.0000 0.67950  0.00000  0.74200  Biso   1.000  B 
  N5       1.0000 0.84191  0.00778  0.70554  Biso   1.000  N 
  B119     1.0000 0.74200  0.00000  0.67950  Biso   1.000  B 
  B120     1.0000 0.64470  0.00000  0.70580  Biso   1.000  B 
  N6       1.0000 0.65887  0.01607  0.79371  Biso   1.000  N 
  B121     1.0000 0.70580  0.00000  0.64470  Biso   1.000  B 
  B122     1.0000 0.77510  0.00000  0.66950  Biso   1.000  B 
  B123     1.0000 0.65650  0.00000  0.65650  Biso   1.000  B 
  B124     1.0000 0.61720  0.00000  0.61720  Biso   1.000  B 
  B125     1.0000 0.61140  0.00000  0.71490  Biso   1.000  B 
  B126     1.0000 0.71490  0.00000  0.61140  Biso   1.000  B 
  B127     1.0000 0.57190  0.00000  0.63260  Biso   1.000  B 
  B128     1.0000 0.63260  0.00000  0.57190  Biso   1.000  B 
  C13      1.0000 0.61786  0.98347  0.81241  Biso   1.000  C 
  C14      1.0000 0.86847  0.05567  0.69936  Biso   1.000  C 
  C15      1.0000 0.58886  0.00276  0.85892  Biso   1.000  C 
  C16      1.0000 0.91399  0.05074  0.66544  Biso   1.000  C 
  H33      1.0000 0.86352  0.97699  0.69534  Biso   1.000  H 
  H34      1.0000 0.64709  0.05301  0.79278  Biso   1.000  H 
  C17      1.0000 0.89809  0.04256  0.61096  Biso   1.000  C 
  H35      1.0000 0.84222  0.08371  0.68411  Biso   1.000  H 
  H36      1.0000 0.63435  0.94764  0.82420  Biso   1.000  H 
  H37      1.0000 0.90970  0.00513  0.59828  Biso   1.000  H 
  H38      1.0000 0.91592  0.07003  0.58644  Biso   1.000  H 
  H39      1.0000 0.85721  0.04669  0.60609  Biso   1.000  H 
  C18      1.0000 0.56128  0.05206  0.85303  Biso   1.000  C 
  H40      1.0000 0.58772  0.08212  0.84326  Biso   1.000  H 
  H41      1.0000 0.54310  0.06218  0.88817  Biso   1.000  H 
  H42      1.0000 0.53298  0.04811  0.82300  Biso   1.000  H 
  H43      1.0000 0.58920  0.97567  0.78430  Biso   1.000  H 
  H44      1.0000 0.88298  0.07012  0.73518  Biso   1.000  H 
  H45      1.0000 0.61582  0.00617  0.88987  Biso   1.000  H 
  H46      1.0000 0.56026  0.97464  0.86996  Biso   1.000  H 
  H47      1.0000 0.93770  0.01926  0.67828  Biso   1.000  H 
  H48      1.0000 0.93583  0.08574  0.66817  Biso   1.000  H 
  B129     1.0000 0.13260  0.00000  0.92810  Biso   1.000  B 
  B130     1.0000 0.11720  0.00000  0.88280  Biso   1.000  B 
  B131     1.0000 0.07190  0.00000  0.86740  Biso   1.000  B 
  B132     1.0000 0.15650  0.00000  0.84350  Biso   1.000  B 
  B133     1.0000 0.20580  0.00000  0.85530  Biso   1.000  B 
  B134     1.0000 0.14470  0.00000  0.79420  Biso   1.000  B 
  B135     1.0000 0.24200  0.00000  0.82050  Biso   1.000  B 
  B136     1.0000 0.21490  0.00000  0.88860  Biso   1.000  B 
  B137     1.0000 0.17950  0.00000  0.75800  Biso   1.000  B 
  B138     1.0000 0.11140  0.00000  0.78510  Biso   1.000  B 
  B139     1.0000 0.23070  0.00000  0.76930  Biso   1.000  B 
  B140     1.0000 0.26930  0.00000  0.73070  Biso   1.000  B 
  B141     1.0000 0.27510  0.00000  0.83050  Biso   1.000  B 
  B142     1.0000 0.32050  0.00000  0.74200  Biso   1.000  B 
  N7       1.0000 0.15809  0.99222  0.70554  Biso   1.000  N 
  B143     1.0000 0.25800  0.00000  0.67950  Biso   1.000  B 
  B144     1.0000 0.35530  0.00000  0.70580  Biso   1.000  B 
  N8       1.0000 0.34113  0.98393  0.79371  Biso   1.000  N 
  B145     1.0000 0.29420  0.00000  0.64470  Biso   1.000  B 
  B146     1.0000 0.22490  0.00000  0.66950  Biso   1.000  B 
  B147     1.0000 0.34350  0.00000  0.65650  Biso   1.000  B 
  B148     1.0000 0.38280  0.00000  0.61720  Biso   1.000  B 
  B149     1.0000 0.38860  0.00000  0.71490  Biso   1.000  B 
  B150     1.0000 0.28510  0.00000  0.61140  Biso   1.000  B 
  B151     1.0000 0.42810  0.00000  0.63260  Biso   1.000  B 
  B152     1.0000 0.36740  0.00000  0.57190  Biso   1.000  B 
  C19      1.0000 0.38214  0.01653  0.81241  Biso   1.000  C 
  C20      1.0000 0.13153  0.94433  0.69936  Biso   1.000  C 
  C21      1.0000 0.41114  0.99724  0.85892  Biso   1.000  C 
  C22      1.0000 0.08601  0.94926  0.66544  Biso   1.000  C 
  H49      1.0000 0.13648  0.02301  0.69534  Biso   1.000  H 
  H50      1.0000 0.35291  0.94699  0.79278  Biso   1.000  H 
  C23      1.0000 0.10191  0.95744  0.61096  Biso   1.000  C 
  H51      1.0000 0.15778  0.91629  0.68411  Biso   1.000  H 
  H52      1.0000 0.36565  0.05236  0.82420  Biso   1.000  H 
  H53      1.0000 0.09030  0.99487  0.59828  Biso   1.000  H 
  H54      1.0000 0.08408  0.92996  0.58644  Biso   1.000  H 
  H55      1.0000 0.14279  0.95331  0.60609  Biso   1.000  H 
  C24      1.0000 0.43872  0.94794  0.85303  Biso   1.000  C 
  H56      1.0000 0.41228  0.91788  0.84326  Biso   1.000  H 
  H57      1.0000 0.45690  0.93782  0.88817  Biso   1.000  H 
  H58      1.0000 0.46702  0.95189  0.82300  Biso   1.000  H 
  H59      1.0000 0.41080  0.02433  0.78430  Biso   1.000  H 
  H60      1.0000 0.11702  0.92988  0.73518  Biso   1.000  H 
  H61      1.0000 0.38418  0.99383  0.88987  Biso   1.000  H 
  H62      1.0000 0.43974  0.02536  0.86996  Biso   1.000  H 
  H63      1.0000 0.06230  0.98074  0.67828  Biso   1.000  H 
  H64      1.0000 0.06417  0.91425  0.66817  Biso   1.000  H 
  B153     1.0000 0.07190  0.13260  0.00000  Biso   1.000  B 
  B154     1.0000 0.11720  0.11720  0.00000  Biso   1.000  B 
  B155     1.0000 0.13260  0.07190  0.00000  Biso   1.000  B 
  B156     1.0000 0.15650  0.15650  0.00000  Biso   1.000  B 
  B157     1.0000 0.14470  0.20580  0.00000  Biso   1.000  B 
  B158     1.0000 0.20580  0.14470  0.00000  Biso   1.000  B 
  B159     1.0000 0.17950  0.24200  0.00000  Biso   1.000  B 
  B160     1.0000 0.11140  0.21490  0.00000  Biso   1.000  B 
  B161     1.0000 0.24200  0.17950  0.00000  Biso   1.000  B 
  B162     1.0000 0.21490  0.11140  0.00000  Biso   1.000  B 
  B163     1.0000 0.23070  0.23070  0.00000  Biso   1.000  B 
  B164     1.0000 0.26930  0.26930  0.00000  Biso   1.000  B 
  B165     1.0000 0.16950  0.27510  0.00000  Biso   1.000  B 
  B166     1.0000 0.25800  0.32050  0.00000  Biso   1.000  B 
  N9       1.0000 0.29425  0.15752  0.99602  Biso   1.000  N 
  B167     1.0000 0.32050  0.25800  0.00000  Biso   1.000  B 
  B168     1.0000 0.29420  0.35530  0.00000  Biso   1.000  B 
  N10      1.0000 0.20524  0.34200  0.00439  Biso   1.000  N 
  B169     1.0000 0.35530  0.29420  0.00000  Biso   1.000  B 
  B170     1.0000 0.33050  0.22490  0.00000  Biso   1.000  B 
  B171     1.0000 0.34350  0.34350  0.00000  Biso   1.000  B 
  B172     1.0000 0.38280  0.38280  0.00000  Biso   1.000  B 
  B173     1.0000 0.28510  0.38860  0.00000  Biso   1.000  B 
  B174     1.0000 0.38860  0.28510  0.00000  Biso   1.000  B 
  B175     1.0000 0.36740  0.42810  0.00000  Biso   1.000  B 
  B176     1.0000 0.42810  0.36740  0.00000  Biso   1.000  B 
  C25      1.0000 0.18668  0.36204  0.95665  Biso   1.000  C 
  C26      1.0000 0.30616  0.13130  0.04258  Biso   1.000  C 
  C27      1.0000 0.13342  0.38288  0.96023  Biso   1.000  C 
  C28      1.0000 0.34512  0.09055  0.03660  Biso   1.000  C 
  H65      1.0000 0.29571  0.13272  0.96593  Biso   1.000  H 
  H66      1.0000 0.20460  0.36911  0.03218  Biso   1.000  H 
  C29      1.0000 0.39463  0.10933  0.01586  Biso   1.000  C 
  H67      1.0000 0.31887  0.15925  0.07014  Biso   1.000  H 
  H68      1.0000 0.18583  0.33148  0.92903  Biso   1.000  H 
  H69      1.0000 0.39439  0.10667  0.97487  Biso   1.000  H 
  H70      1.0000 0.42475  0.08522  0.03035  Biso   1.000  H 
  H71      1.0000 0.40273  0.14822  0.02735  Biso   1.000  H 
  C30      1.0000 0.13162  0.43372  0.98496  Biso   1.000  C 
  H72      1.0000 0.14554  0.43088  0.02351  Biso   1.000  H 
  H73      1.0000 0.09226  0.44665  0.98551  Biso   1.000  H 
  H74      1.0000 0.15468  0.46112  0.96462  Biso   1.000  H 
  H75      1.0000 0.21194  0.39122  0.94210  Biso   1.000  H 
  H76      1.0000 0.27346  0.11187  0.05863  Biso   1.000  H 
  H77      1.0000 0.11120  0.35657  0.98369  Biso   1.000  H 
  H78      1.0000 0.11628  0.38522  0.92307  Biso   1.000  H 
  H79      1.0000 0.33063  0.05975  0.01308  Biso   1.000  H 
  H80      1.0000 0.35245  0.07591  0.07430  Biso   1.000  H 
  B177     1.0000 0.07190  0.86740  0.00000  Biso   1.000  B 
  B178     1.0000 0.11720  0.88280  0.00000  Biso   1.000  B 
  B179     1.0000 0.13260  0.92810  0.00000  Biso   1.000  B 
  B180     1.0000 0.15650  0.84350  0.00000  Biso   1.000  B 
  B181     1.0000 0.14470  0.79420  0.00000  Biso   1.000  B 
  B182     1.0000 0.20580  0.85530  0.00000  Biso   1.000  B 
  B183     1.0000 0.17950  0.75800  0.00000  Biso   1.000  B 
  B184     1.0000 0.11140  0.78510  0.00000  Biso   1.000  B 
  B185     1.0000 0.24200  0.82050  0.00000  Biso   1.000  B 
  B186     1.0000 0.21490  0.88860  0.00000  Biso   1.000  B 
  B187     1.0000 0.23070  0.76930  0.00000  Biso   1.000  B 
  B188     1.0000 0.26930  0.73070  0.00000  Biso   1.000  B 
  B189     1.0000 0.16950  0.72490  0.00000  Biso   1.000  B 
  B190     1.0000 0.25800  0.67950  0.00000  Biso   1.000  B 
  N11      1.0000 0.29425  0.84248  0.00398  Biso   1.000  N 
  B191     1.0000 0.32050  0.74200  0.00000  Biso   1.000  B 
  B192     1.0000 0.29420  0.64470  0.00000  Biso   1.000  B 
  N12      1.0000 0.20524  0.65800  0.99561  Biso   1.000  N 
  B193     1.0000 0.35530  0.70580  0.00000  Biso   1.000  B 
  B194     1.0000 0.33050  0.77510  0.00000  Biso   1.000  B 
  B195     1.0000 0.34350  0.65650  0.00000  Biso   1.000  B 
  B196     1.0000 0.38280  0.61720  0.00000  Biso   1.000  B 
  B197     1.0000 0.28510  0.61140  0.00000  Biso   1.000  B 
  B198     1.0000 0.38860  0.71490  0.00000  Biso   1.000  B 
  B199     1.0000 0.36740  0.57190  0.00000  Biso   1.000  B 
  B200     1.0000 0.42810  0.63260  0.00000  Biso   1.000  B 
  C31      1.0000 0.18668  0.63795  0.04335  Biso   1.000  C 
  C32      1.0000 0.30616  0.86870  0.95742  Biso   1.000  C 
  C33      1.0000 0.13342  0.61712  0.03977  Biso   1.000  C 
  C34      1.0000 0.34512  0.90945  0.96340  Biso   1.000  C 
  H81      1.0000 0.29571  0.86728  0.03407  Biso   1.000  H 
  H82      1.0000 0.20460  0.63089  0.96782  Biso   1.000  H 
  C35      1.0000 0.39463  0.89067  0.98414  Biso   1.000  C 
  H83      1.0000 0.31887  0.84075  0.92986  Biso   1.000  H 
  H84      1.0000 0.18583  0.66852  0.07097  Biso   1.000  H 
  H85      1.0000 0.39439  0.89333  0.02513  Biso   1.000  H 
  H86      1.0000 0.42475  0.91478  0.96965  Biso   1.000  H 
  H87      1.0000 0.40273  0.85178  0.97265  Biso   1.000  H 
  C36      1.0000 0.13162  0.56628  0.01504  Biso   1.000  C 
  H88      1.0000 0.14554  0.56912  0.97649  Biso   1.000  H 
  H89      1.0000 0.09226  0.55335  0.01449  Biso   1.000  H 
  H90      1.0000 0.15468  0.53888  0.03538  Biso   1.000  H 
  H91      1.0000 0.21194  0.60878  0.05790  Biso   1.000  H 
  H92      1.0000 0.27346  0.88813  0.94137  Biso   1.000  H 
  H93      1.0000 0.11120  0.64343  0.01632  Biso   1.000  H 
  H94      1.0000 0.11628  0.61478  0.07693  Biso   1.000  H 
  H95      1.0000 0.33063  0.94025  0.98692  Biso   1.000  H 
  H96      1.0000 0.35245  0.92409  0.92570  Biso   1.000  H 
  B201     1.0000 0.92810  0.86740  0.00000  Biso   1.000  B 
  B202     1.0000 0.88280  0.88280  0.00000  Biso   1.000  B 
  B203     1.0000 0.86740  0.92810  0.00000  Biso   1.000  B 
  B204     1.0000 0.84350  0.84350  0.00000  Biso   1.000  B 
  B205     1.0000 0.85530  0.79420  0.00000  Biso   1.000  B 
  B206     1.0000 0.79420  0.85530  0.00000  Biso   1.000  B 
  B207     1.0000 0.82050  0.75800  0.00000  Biso   1.000  B 
  B208     1.0000 0.88860  0.78510  0.00000  Biso   1.000  B 
  B209     1.0000 0.75800  0.82050  0.00000  Biso   1.000  B 
  B210     1.0000 0.78510  0.88860  0.00000  Biso   1.000  B 
  B211     1.0000 0.76930  0.76930  0.00000  Biso   1.000  B 
  B212     1.0000 0.73070  0.73070  0.00000  Biso   1.000  B 
  B213     1.0000 0.83050  0.72490  0.00000  Biso   1.000  B 
  B214     1.0000 0.74200  0.67950  0.00000  Biso   1.000  B 
  N13      1.0000 0.70575  0.84248  0.99602  Biso   1.000  N 
  B215     1.0000 0.67950  0.74200  0.00000  Biso   1.000  B 
  B216     1.0000 0.70580  0.64470  0.00000  Biso   1.000  B 
  N14      1.0000 0.79476  0.65800  0.00439  Biso   1.000  N 
  B217     1.0000 0.64470  0.70580  0.00000  Biso   1.000  B 
  B218     1.0000 0.66950  0.77510  0.00000  Biso   1.000  B 
  B219     1.0000 0.65650  0.65650  0.00000  Biso   1.000  B 
  B220     1.0000 0.61720  0.61720  0.00000  Biso   1.000  B 
  B221     1.0000 0.71490  0.61140  0.00000  Biso   1.000  B 
  B222     1.0000 0.61140  0.71490  0.00000  Biso   1.000  B 
  B223     1.0000 0.63260  0.57190  0.00000  Biso   1.000  B 
  B224     1.0000 0.57190  0.63260  0.00000  Biso   1.000  B 
  C37      1.0000 0.81332  0.63795  0.95665  Biso   1.000  C 
  C38      1.0000 0.69384  0.86870  0.04258  Biso   1.000  C 
  C39      1.0000 0.86658  0.61712  0.96023  Biso   1.000  C 
  C40      1.0000 0.65488  0.90945  0.03660  Biso   1.000  C 
  H97      1.0000 0.70429  0.86728  0.96593  Biso   1.000  H 
  H98      1.0000 0.79540  0.63089  0.03218  Biso   1.000  H 
  C41      1.0000 0.60537  0.89067  0.01586  Biso   1.000  C 
  H99      1.0000 0.68113  0.84075  0.07014  Biso   1.000  H 
  H100     1.0000 0.81417  0.66852  0.92903  Biso   1.000  H 
  H101     1.0000 0.60561  0.89333  0.97487  Biso   1.000  H 
  H102     1.0000 0.57525  0.91478  0.03035  Biso   1.000  H 
  H103     1.0000 0.59727  0.85178  0.02735  Biso   1.000  H 
  C42      1.0000 0.86837  0.56628  0.98496  Biso   1.000  C 
  H104     1.0000 0.85445  0.56912  0.02351  Biso   1.000  H 
  H105     1.0000 0.90774  0.55335  0.98551  Biso   1.000  H 
  H106     1.0000 0.84532  0.53888  0.96462  Biso   1.000  H 
  H107     1.0000 0.78806  0.60878  0.94210  Biso   1.000  H 
  H108     1.0000 0.72654  0.88813  0.05863  Biso   1.000  H 
  H109     1.0000 0.88880  0.64343  0.98369  Biso   1.000  H 
  H110     1.0000 0.88372  0.61478  0.92307  Biso   1.000  H 
  H111     1.0000 0.66937  0.94025  0.01308  Biso   1.000  H 
  H112     1.0000 0.64755  0.92409  0.07430  Biso   1.000  H 
  B225     1.0000 0.92810  0.13260  0.00000  Biso   1.000  B 
  B226     1.0000 0.88280  0.11720  0.00000  Biso   1.000  B 
  B227     1.0000 0.86740  0.07190  0.00000  Biso   1.000  B 
  B228     1.0000 0.84350  0.15650  0.00000  Biso   1.000  B 
  B229     1.0000 0.85530  0.20580  0.00000  Biso   1.000  B 
  B230     1.0000 0.79420  0.14470  0.00000  Biso   1.000  B 
  B231     1.0000 0.82050  0.24200  0.00000  Biso   1.000  B 
  B232     1.0000 0.88860  0.21490  0.00000  Biso   1.000  B 
  B233     1.0000 0.75800  0.17950  0.00000  Biso   1.000  B 
  B234     1.0000 0.78510  0.11140  0.00000  Biso   1.000  B 
  B235     1.0000 0.76930  0.23070  0.00000  Biso   1.000  B 
  B236     1.0000 0.73070  0.26930  0.00000  Biso   1.000  B 
  B237     1.0000 0.83050  0.27510  0.00000  Biso   1.000  B 
  B238     1.0000 0.74200  0.32050  0.00000  Biso   1.000  B 
  N15      1.0000 0.70575  0.15752  0.00398  Biso   1.000  N 
  B239     1.0000 0.67950  0.25800  0.00000  Biso   1.000  B 
  B240     1.0000 0.70580  0.35530  0.00000  Biso   1.000  B 
  N16      1.0000 0.79476  0.34200  0.99561  Biso   1.000  N 
  B241     1.0000 0.64470  0.29420  0.00000  Biso   1.000  B 
  B242     1.0000 0.66950  0.22490  0.00000  Biso   1.000  B 
  B243     1.0000 0.65650  0.34350  0.00000  Biso   1.000  B 
  B244     1.0000 0.61720  0.38280  0.00000  Biso   1.000  B 
  B245     1.0000 0.71490  0.38860  0.00000  Biso   1.000  B 
  B246     1.0000 0.61140  0.28510  0.00000  Biso   1.000  B 
  B247     1.0000 0.63260  0.42810  0.00000  Biso   1.000  B 
  B248     1.0000 0.57190  0.36740  0.00000  Biso   1.000  B 
  C43      1.0000 0.81332  0.36204  0.04335  Biso   1.000  C 
  C44      1.0000 0.69384  0.13130  0.95742  Biso   1.000  C 
  C45      1.0000 0.86658  0.38288  0.03977  Biso   1.000  C 
  C46      1.0000 0.65488  0.09055  0.96340  Biso   1.000  C 
  H113     1.0000 0.70429  0.13272  0.03407  Biso   1.000  H 
  H114     1.0000 0.79540  0.36911  0.96782  Biso   1.000  H 
  C47      1.0000 0.60537  0.10933  0.98414  Biso   1.000  C 
  H115     1.0000 0.68113  0.15925  0.92986  Biso   1.000  H 
  H116     1.0000 0.81417  0.33148  0.07097  Biso   1.000  H 
  H117     1.0000 0.60561  0.10667  0.02513  Biso   1.000  H 
  H118     1.0000 0.57525  0.08522  0.96965  Biso   1.000  H 
  H119     1.0000 0.59727  0.14822  0.97265  Biso   1.000  H 
  C48      1.0000 0.86837  0.43372  0.01504  Biso   1.000  C 
  H120     1.0000 0.85445  0.43088  0.97649  Biso   1.000  H 
  H121     1.0000 0.90774  0.44665  0.01449  Biso   1.000  H 
  H122     1.0000 0.84532  0.46112  0.03538  Biso   1.000  H 
  H123     1.0000 0.78806  0.39122  0.05790  Biso   1.000  H 
  H124     1.0000 0.72654  0.11187  0.94137  Biso   1.000  H 
  H125     1.0000 0.88880  0.35657  0.01632  Biso   1.000  H 
  H126     1.0000 0.88372  0.38522  0.07693  Biso   1.000  H 
  H127     1.0000 0.66937  0.05975  0.98692  Biso   1.000  H 
  H128     1.0000 0.64755  0.07591  0.92570  Biso   1.000  H 
  B249     1.0000 0.00000  0.07190  0.13260  Biso   1.000  B 
  B250     1.0000 0.00000  0.11720  0.11720  Biso   1.000  B 
  B251     1.0000 0.00000  0.13260  0.07190  Biso   1.000  B 
  B252     1.0000 0.00000  0.15650  0.15650  Biso   1.000  B 
  B253     1.0000 0.00000  0.14470  0.20580  Biso   1.000  B 
  B254     1.0000 0.00000  0.20580  0.14470  Biso   1.000  B 
  B255     1.0000 0.00000  0.17950  0.24200  Biso   1.000  B 
  B256     1.0000 0.00000  0.11140  0.21490  Biso   1.000  B 
  B257     1.0000 0.00000  0.24200  0.17950  Biso   1.000  B 
  B258     1.0000 0.00000  0.21490  0.11140  Biso   1.000  B 
  B259     1.0000 0.00000  0.23070  0.23070  Biso   1.000  B 
  B260     1.0000 0.00000  0.26930  0.26930  Biso   1.000  B 
  B261     1.0000 0.00000  0.16950  0.27510  Biso   1.000  B 
  B262     1.0000 0.00000  0.25800  0.32050  Biso   1.000  B 
  N17      1.0000 0.02637  0.29153  0.16234  Biso   1.000  N 
  B263     1.0000 0.00000  0.32050  0.25800  Biso   1.000  B 
  B264     1.0000 0.00000  0.29420  0.35530  Biso   1.000  B 
  N18      1.0000 0.01029  0.20595  0.34199  Biso   1.000  N 
  B265     1.0000 0.00000  0.35530  0.29420  Biso   1.000  B 
  B266     1.0000 0.00000  0.33050  0.22490  Biso   1.000  B 
  B267     1.0000 0.00000  0.34350  0.34350  Biso   1.000  B 
  B268     1.0000 0.00000  0.38280  0.38280  Biso   1.000  B 
  B269     1.0000 0.00000  0.28510  0.38860  Biso   1.000  B 
  B270     1.0000 0.00000  0.38860  0.28510  Biso   1.000  B 
  B271     1.0000 0.00000  0.36740  0.42810  Biso   1.000  B 
  B272     1.0000 0.00000  0.42810  0.36740  Biso   1.000  B 
  C49      1.0000 0.96812  0.18917  0.37332  Biso   1.000  C 
  C50      1.0000 0.07853  0.28554  0.15023  Biso   1.000  C 
  C51      1.0000 0.97980  0.13957  0.39965  Biso   1.000  C 
  C52      1.0000 0.11705  0.28863  0.19578  Biso   1.000  C 
  H129     1.0000 0.01081  0.29958  0.12736  Biso   1.000  H 
  H130     1.0000 0.04384  0.20509  0.36161  Biso   1.000  H 
  C53      1.0000 0.16244  0.26481  0.17502  Biso   1.000  C 
  H131     1.0000 0.07882  0.24849  0.12975  Biso   1.000  H 
  H132     1.0000 0.93477  0.18272  0.34964  Biso   1.000  H 
  H133     1.0000 0.15178  0.22692  0.16459  Biso   1.000  H 
  H134     1.0000 0.19363  0.26148  0.20127  Biso   1.000  H 
  H135     1.0000 0.17379  0.28420  0.13977  Biso   1.000  H 
  C54      1.0000 0.01804  0.14390  0.44066  Biso   1.000  C 
  H136     1.0000 0.05576  0.14751  0.42441  Biso   1.000  H 
  H137     1.0000 0.01719  0.11158  0.46513  Biso   1.000  H 
  H138     1.0000 0.00988  0.17766  0.46165  Biso   1.000  H 
  H139     1.0000 0.95818  0.21739  0.40127  Biso   1.000  H 
  H140     1.0000 0.09012  0.31467  0.12281  Biso   1.000  H 
  H141     1.0000 0.99344  0.11297  0.37150  Biso   1.000  H 
  H142     1.0000 0.94518  0.12408  0.41647  Biso   1.000  H 
  H143     1.0000 0.10308  0.27054  0.22903  Biso   1.000  H 
  H144     1.0000 0.12234  0.32870  0.20410  Biso   1.000  H 
  B273     1.0000 0.00000  0.07190  0.86740  Biso   1.000  B 
  B274     1.0000 0.00000  0.11720  0.88280  Biso   1.000  B 
  B275     1.0000 0.00000  0.13260  0.92810  Biso   1.000  B 
  B276     1.0000 0.00000  0.15650  0.84350  Biso   1.000  B 
  B277     1.0000 0.00000  0.14470  0.79420  Biso   1.000  B 
  B278     1.0000 0.00000  0.20580  0.85530  Biso   1.000  B 
  B279     1.0000 0.00000  0.17950  0.75800  Biso   1.000  B 
  B280     1.0000 0.00000  0.11140  0.78510  Biso   1.000  B 
  B281     1.0000 0.00000  0.24200  0.82050  Biso   1.000  B 
  B282     1.0000 0.00000  0.21490  0.88860  Biso   1.000  B 
  B283     1.0000 0.00000  0.23070  0.76930  Biso   1.000  B 
  B284     1.0000 0.00000  0.26930  0.73070  Biso   1.000  B 
  B285     1.0000 0.00000  0.16950  0.72490  Biso   1.000  B 
  B286     1.0000 0.00000  0.25800  0.67950  Biso   1.000  B 
  N19      1.0000 0.97363  0.29153  0.83766  Biso   1.000  N 
  B287     1.0000 0.00000  0.32050  0.74200  Biso   1.000  B 
  B288     1.0000 0.00000  0.29420  0.64470  Biso   1.000  B 
  N20      1.0000 0.98971  0.20595  0.65801  Biso   1.000  N 
  B289     1.0000 0.00000  0.35530  0.70580  Biso   1.000  B 
  B290     1.0000 0.00000  0.33050  0.77510  Biso   1.000  B 
  B291     1.0000 0.00000  0.34350  0.65650  Biso   1.000  B 
  B292     1.0000 0.00000  0.38280  0.61720  Biso   1.000  B 
  B293     1.0000 0.00000  0.28510  0.61140  Biso   1.000  B 
  B294     1.0000 0.00000  0.38860  0.71490  Biso   1.000  B 
  B295     1.0000 0.00000  0.36740  0.57190  Biso   1.000  B 
  B296     1.0000 0.00000  0.42810  0.63260  Biso   1.000  B 
  C55      1.0000 0.03188  0.18917  0.62668  Biso   1.000  C 
  C56      1.0000 0.92147  0.28554  0.84977  Biso   1.000  C 
  C57      1.0000 0.02020  0.13957  0.60035  Biso   1.000  C 
  C58      1.0000 0.88295  0.28863  0.80422  Biso   1.000  C 
  H145     1.0000 0.98919  0.29958  0.87264  Biso   1.000  H 
  H146     1.0000 0.95616  0.20509  0.63838  Biso   1.000  H 
  C59      1.0000 0.83756  0.26481  0.82498  Biso   1.000  C 
  H147     1.0000 0.92118  0.24849  0.87025  Biso   1.000  H 
  H148     1.0000 0.06523  0.18272  0.65036  Biso   1.000  H 
  H149     1.0000 0.84822  0.22692  0.83541  Biso   1.000  H 
  H150     1.0000 0.80637  0.26148  0.79874  Biso   1.000  H 
  H151     1.0000 0.82621  0.28420  0.86023  Biso   1.000  H 
  C60      1.0000 0.98196  0.14390  0.55934  Biso   1.000  C 
  H152     1.0000 0.94424  0.14751  0.57559  Biso   1.000  H 
  H153     1.0000 0.98281  0.11158  0.53487  Biso   1.000  H 
  H154     1.0000 0.99012  0.17766  0.53835  Biso   1.000  H 
  H155     1.0000 0.04183  0.21739  0.59873  Biso   1.000  H 
  H156     1.0000 0.90988  0.31467  0.87719  Biso   1.000  H 
  H157     1.0000 0.00656  0.11297  0.62851  Biso   1.000  H 
  H158     1.0000 0.05482  0.12408  0.58353  Biso   1.000  H 
  H159     1.0000 0.89692  0.27054  0.77097  Biso   1.000  H 
  H160     1.0000 0.87766  0.32870  0.79590  Biso   1.000  H 
  B297     1.0000 0.00000  0.92810  0.86740  Biso   1.000  B 
  B298     1.0000 0.00000  0.88280  0.88280  Biso   1.000  B 
  B299     1.0000 0.00000  0.86740  0.92810  Biso   1.000  B 
  B300     1.0000 0.00000  0.84350  0.84350  Biso   1.000  B 
  B301     1.0000 0.00000  0.85530  0.79420  Biso   1.000  B 
  B302     1.0000 0.00000  0.79420  0.85530  Biso   1.000  B 
  B303     1.0000 0.00000  0.82050  0.75800  Biso   1.000  B 
  B304     1.0000 0.00000  0.88860  0.78510  Biso   1.000  B 
  B305     1.0000 0.00000  0.75800  0.82050  Biso   1.000  B 
  B306     1.0000 0.00000  0.78510  0.88860  Biso   1.000  B 
  B307     1.0000 0.00000  0.76930  0.76930  Biso   1.000  B 
  B308     1.0000 0.00000  0.73070  0.73070  Biso   1.000  B 
  B309     1.0000 0.00000  0.83050  0.72490  Biso   1.000  B 
  B310     1.0000 0.00000  0.74200  0.67950  Biso   1.000  B 
  N21      1.0000 0.02637  0.70847  0.83766  Biso   1.000  N 
  B311     1.0000 0.00000  0.67950  0.74200  Biso   1.000  B 
  B312     1.0000 0.00000  0.70580  0.64470  Biso   1.000  B 
  N22      1.0000 0.01029  0.79405  0.65801  Biso   1.000  N 
  B313     1.0000 0.00000  0.64470  0.70580  Biso   1.000  B 
  B314     1.0000 0.00000  0.66950  0.77510  Biso   1.000  B 
  B315     1.0000 0.00000  0.65650  0.65650  Biso   1.000  B 
  B316     1.0000 0.00000  0.61720  0.61720  Biso   1.000  B 
  B317     1.0000 0.00000  0.71490  0.61140  Biso   1.000  B 
  B318     1.0000 0.00000  0.61140  0.71490  Biso   1.000  B 
  B319     1.0000 0.00000  0.63260  0.57190  Biso   1.000  B 
  B320     1.0000 0.00000  0.57190  0.63260  Biso   1.000  B 
  C61      1.0000 0.96812  0.81083  0.62668  Biso   1.000  C 
  C62      1.0000 0.07853  0.71446  0.84977  Biso   1.000  C 
  C63      1.0000 0.97980  0.86043  0.60035  Biso   1.000  C 
  C64      1.0000 0.11705  0.71137  0.80422  Biso   1.000  C 
  H161     1.0000 0.01081  0.70042  0.87264  Biso   1.000  H 
  H162     1.0000 0.04384  0.79491  0.63838  Biso   1.000  H 
  C65      1.0000 0.16244  0.73519  0.82498  Biso   1.000  C 
  H163     1.0000 0.07882  0.75151  0.87025  Biso   1.000  H 
  H164     1.0000 0.93477  0.81727  0.65036  Biso   1.000  H 
  H165     1.0000 0.15178  0.77308  0.83541  Biso   1.000  H 
  H166     1.0000 0.19363  0.73852  0.79874  Biso   1.000  H 
  H167     1.0000 0.17379  0.71580  0.86023  Biso   1.000  H 
  C66      1.0000 0.01804  0.85610  0.55934  Biso   1.000  C 
  H168     1.0000 0.05576  0.85249  0.57559  Biso   1.000  H 
  H169     1.0000 0.01719  0.88842  0.53487  Biso   1.000  H 
  H170     1.0000 0.00988  0.82234  0.53835  Biso   1.000  H 
  H171     1.0000 0.95818  0.78261  0.59873  Biso   1.000  H 
  H172     1.0000 0.09012  0.68533  0.87719  Biso   1.000  H 
  H173     1.0000 0.99344  0.88703  0.62851  Biso   1.000  H 
  H174     1.0000 0.94518  0.87592  0.58353  Biso   1.000  H 
  H175     1.0000 0.10308  0.72946  0.77097  Biso   1.000  H 
  H176     1.0000 0.12234  0.67130  0.79590  Biso   1.000  H 
  B321     1.0000 0.00000  0.92810  0.13260  Biso   1.000  B 
  B322     1.0000 0.00000  0.88280  0.11720  Biso   1.000  B 
  B323     1.0000 0.00000  0.86740  0.07190  Biso   1.000  B 
  B324     1.0000 0.00000  0.84350  0.15650  Biso   1.000  B 
  B325     1.0000 0.00000  0.85530  0.20580  Biso   1.000  B 
  B326     1.0000 0.00000  0.79420  0.14470  Biso   1.000  B 
  B327     1.0000 0.00000  0.82050  0.24200  Biso   1.000  B 
  B328     1.0000 0.00000  0.88860  0.21490  Biso   1.000  B 
  B329     1.0000 0.00000  0.75800  0.17950  Biso   1.000  B 
  B330     1.0000 0.00000  0.78510  0.11140  Biso   1.000  B 
  B331     1.0000 0.00000  0.76930  0.23070  Biso   1.000  B 
  B332     1.0000 0.00000  0.73070  0.26930  Biso   1.000  B 
  B333     1.0000 0.00000  0.83050  0.27510  Biso   1.000  B 
  B334     1.0000 0.00000  0.74200  0.32050  Biso   1.000  B 
  N23      1.0000 0.97363  0.70847  0.16234  Biso   1.000  N 
  B335     1.0000 0.00000  0.67950  0.25800  Biso   1.000  B 
  B336     1.0000 0.00000  0.70580  0.35530  Biso   1.000  B 
  N24      1.0000 0.98971  0.79405  0.34199  Biso   1.000  N 
  B337     1.0000 0.00000  0.64470  0.29420  Biso   1.000  B 
  B338     1.0000 0.00000  0.66950  0.22490  Biso   1.000  B 
  B339     1.0000 0.00000  0.65650  0.34350  Biso   1.000  B 
  B340     1.0000 0.00000  0.61720  0.38280  Biso   1.000  B 
  B341     1.0000 0.00000  0.71490  0.38860  Biso   1.000  B 
  B342     1.0000 0.00000  0.61140  0.28510  Biso   1.000  B 
  B343     1.0000 0.00000  0.63260  0.42810  Biso   1.000  B 
  B344     1.0000 0.00000  0.57190  0.36740  Biso   1.000  B 
  C67      1.0000 0.03188  0.81083  0.37332  Biso   1.000  C 
  C68      1.0000 0.92147  0.71446  0.15023  Biso   1.000  C 
  C69      1.0000 0.02020  0.86043  0.39965  Biso   1.000  C 
  C70      1.0000 0.88295  0.71137  0.19578  Biso   1.000  C 
  H177     1.0000 0.98919  0.70042  0.12736  Biso   1.000  H 
  H178     1.0000 0.95616  0.79491  0.36161  Biso   1.000  H 
  C71      1.0000 0.83756  0.73519  0.17502  Biso   1.000  C 
  H179     1.0000 0.92118  0.75151  0.12975  Biso   1.000  H 
  H180     1.0000 0.06523  0.81727  0.34964  Biso   1.000  H 
  H181     1.0000 0.84822  0.77308  0.16459  Biso   1.000  H 
  H182     1.0000 0.80637  0.73852  0.20127  Biso   1.000  H 
  H183     1.0000 0.82621  0.71580  0.13977  Biso   1.000  H 
  C72      1.0000 0.98196  0.85610  0.44066  Biso   1.000  C 
  H184     1.0000 0.94424  0.85249  0.42441  Biso   1.000  H 
  H185     1.0000 0.98281  0.88842  0.46513  Biso   1.000  H 
  H186     1.0000 0.99012  0.82234  0.46165  Biso   1.000  H 
  H187     1.0000 0.04183  0.78261  0.40127  Biso   1.000  H 
  H188     1.0000 0.90988  0.68533  0.12281  Biso   1.000  H 
  H189     1.0000 0.00656  0.88703  0.37150  Biso   1.000  H 
  H190     1.0000 0.05482  0.87592  0.41647  Biso   1.000  H 
  H191     1.0000 0.89692  0.72946  0.22903  Biso   1.000  H 
  H192     1.0000 0.87766  0.67130  0.20410  Biso   1.000  H 
  B345     1.0000 0.13260  0.50000  0.57190  Biso   1.000  B 
  B346     1.0000 0.11720  0.50000  0.61720  Biso   1.000  B 
  B347     1.0000 0.07190  0.50000  0.63260  Biso   1.000  B 
  B348     1.0000 0.15650  0.50000  0.65650  Biso   1.000  B 
  B349     1.0000 0.20580  0.50000  0.64470  Biso   1.000  B 
  B350     1.0000 0.14470  0.50000  0.70580  Biso   1.000  B 
  B351     1.0000 0.24200  0.50000  0.67950  Biso   1.000  B 
  B352     1.0000 0.21490  0.50000  0.61140  Biso   1.000  B 
  B353     1.0000 0.17950  0.50000  0.74200  Biso   1.000  B 
  B354     1.0000 0.11140  0.50000  0.71490  Biso   1.000  B 
  B355     1.0000 0.23070  0.50000  0.73070  Biso   1.000  B 
  B356     1.0000 0.26930  0.50000  0.76930  Biso   1.000  B 
  B357     1.0000 0.27510  0.50000  0.66950  Biso   1.000  B 
  B358     1.0000 0.32050  0.50000  0.75800  Biso   1.000  B 
  N25      1.0000 0.15785  0.49686  0.79608  Biso   1.000  N 
  B359     1.0000 0.25800  0.50000  0.82050  Biso   1.000  B 
  B360     1.0000 0.35530  0.50000  0.79420  Biso   1.000  B 
  N26      1.0000 0.34096  0.49071  0.70529  Biso   1.000  N 
  B361     1.0000 0.29420  0.50000  0.85530  Biso   1.000  B 
  B362     1.0000 0.22490  0.50000  0.83050  Biso   1.000  B 
  B363     1.0000 0.34350  0.50000  0.84350  Biso   1.000  B 
  B364     1.0000 0.38280  0.50000  0.88280  Biso   1.000  B 
  B365     1.0000 0.38860  0.50000  0.78510  Biso   1.000  B 
  B366     1.0000 0.28510  0.50000  0.88860  Biso   1.000  B 
  B367     1.0000 0.42810  0.50000  0.86740  Biso   1.000  B 
  B368     1.0000 0.36740  0.50000  0.92810  Biso   1.000  B 
  C73      1.0000 0.36015  0.43976  0.69906  Biso   1.000  C 
  C74      1.0000 0.12427  0.53955  0.80032  Biso   1.000  C 
  C75      1.0000 0.35775  0.41933  0.64540  Biso   1.000  C 
  C76      1.0000 0.11392  0.55146  0.85578  Biso   1.000  C 
  H193     1.0000 0.13399  0.46628  0.79797  Biso   1.000  H 
  H194     1.0000 0.36812  0.51702  0.69651  Biso   1.000  H 
  C77      1.0000 0.07646  0.52174  0.88437  Biso   1.000  C 
  H195     1.0000 0.14267  0.57377  0.77826  Biso   1.000  H 
  H196     1.0000 0.33650  0.41396  0.72070  Biso   1.000  H 
  H197     1.0000 0.05415  0.50185  0.85969  Biso   1.000  H 
  H198     1.0000 0.05540  0.54915  0.90774  Biso   1.000  H 
  H199     1.0000 0.09314  0.49236  0.91042  Biso   1.000  H 
  C78      1.0000 0.40072  0.43636  0.61278  Biso   1.000  C 
  H200     1.0000 0.40401  0.47674  0.61636  Biso   1.000  H 
  H201     1.0000 0.39288  0.42552  0.57349  Biso   1.000  H 
  H202     1.0000 0.43654  0.41874  0.62430  Biso   1.000  H 
  H203     1.0000 0.39836  0.43727  0.71437  Biso   1.000  H 
  H204     1.0000 0.08630  0.53238  0.78202  Biso   1.000  H 
  H205     1.0000 0.32173  0.43186  0.62829  Biso   1.000  H 
  H206     1.0000 0.35912  0.37836  0.64614  Biso   1.000  H 
  H207     1.0000 0.09891  0.59165  0.85610  Biso   1.000  H 
  H208     1.0000 0.15090  0.55260  0.87547  Biso   1.000  H 
  B369     1.0000 0.86740  0.50000  0.57190  Biso   1.000  B 
  B370     1.0000 0.88280  0.50000  0.61720  Biso   1.000  B 
  B371     1.0000 0.92810  0.50000  0.63260  Biso   1.000  B 
  B372     1.0000 0.84350  0.50000  0.65650  Biso   1.000  B 
  B373     1.0000 0.79420  0.50000  0.64470  Biso   1.000  B 
  B374     1.0000 0.85530  0.50000  0.70580  Biso   1.000  B 
  B375     1.0000 0.75800  0.50000  0.67950  Biso   1.000  B 
  B376     1.0000 0.78510  0.50000  0.61140  Biso   1.000  B 
  B377     1.0000 0.82050  0.50000  0.74200  Biso   1.000  B 
  B378     1.0000 0.88860  0.50000  0.71490  Biso   1.000  B 
  B379     1.0000 0.76930  0.50000  0.73070  Biso   1.000  B 
  B380     1.0000 0.73070  0.50000  0.76930  Biso   1.000  B 
  B381     1.0000 0.72490  0.50000  0.66950  Biso   1.000  B 
  B382     1.0000 0.67950  0.50000  0.75800  Biso   1.000  B 
  N27      1.0000 0.84215  0.50314  0.79608  Biso   1.000  N 
  B383     1.0000 0.74200  0.50000  0.82050  Biso   1.000  B 
  B384     1.0000 0.64470  0.50000  0.79420  Biso   1.000  B 
  N28      1.0000 0.65905  0.50929  0.70529  Biso   1.000  N 
  B385     1.0000 0.70580  0.50000  0.85530  Biso   1.000  B 
  B386     1.0000 0.77510  0.50000  0.83050  Biso   1.000  B 
  B387     1.0000 0.65650  0.50000  0.84350  Biso   1.000  B 
  B388     1.0000 0.61720  0.50000  0.88280  Biso   1.000  B 
  B389     1.0000 0.61140  0.50000  0.78510  Biso   1.000  B 
  B390     1.0000 0.71490  0.50000  0.88860  Biso   1.000  B 
  B391     1.0000 0.57190  0.50000  0.86740  Biso   1.000  B 
  B392     1.0000 0.63260  0.50000  0.92810  Biso   1.000  B 
  C79      1.0000 0.63985  0.56024  0.69906  Biso   1.000  C 
  C80      1.0000 0.87573  0.46045  0.80032  Biso   1.000  C 
  C81      1.0000 0.64225  0.58067  0.64540  Biso   1.000  C 
  C82      1.0000 0.88608  0.44854  0.85578  Biso   1.000  C 
  H209     1.0000 0.86601  0.53372  0.79797  Biso   1.000  H 
  H210     1.0000 0.63188  0.48298  0.69651  Biso   1.000  H 
  C83      1.0000 0.92354  0.47826  0.88437  Biso   1.000  C 
  H211     1.0000 0.85732  0.42623  0.77826  Biso   1.000  H 
  H212     1.0000 0.66350  0.58604  0.72070  Biso   1.000  H 
  H213     1.0000 0.94585  0.49815  0.85969  Biso   1.000  H 
  H214     1.0000 0.94461  0.45085  0.90774  Biso   1.000  H 
  H215     1.0000 0.90686  0.50764  0.91042  Biso   1.000  H 
  C84      1.0000 0.59928  0.56364  0.61278  Biso   1.000  C 
  H216     1.0000 0.59599  0.52326  0.61636  Biso   1.000  H 
  H217     1.0000 0.60712  0.57448  0.57349  Biso   1.000  H 
  H218     1.0000 0.56346  0.58126  0.62430  Biso   1.000  H 
  H219     1.0000 0.60164  0.56273  0.71437  Biso   1.000  H 
  H220     1.0000 0.91370  0.46762  0.78202  Biso   1.000  H 
  H221     1.0000 0.67827  0.56814  0.62829  Biso   1.000  H 
  H222     1.0000 0.64088  0.62164  0.64614  Biso   1.000  H 
  H223     1.0000 0.90109  0.40835  0.85610  Biso   1.000  H 
  H224     1.0000 0.84910  0.44740  0.87547  Biso   1.000  H 
  B393     1.0000 0.86740  0.50000  0.42810  Biso   1.000  B 
  B394     1.0000 0.88280  0.50000  0.38280  Biso   1.000  B 
  B395     1.0000 0.92810  0.50000  0.36740  Biso   1.000  B 
  B396     1.0000 0.84350  0.50000  0.34350  Biso   1.000  B 
  B397     1.0000 0.79420  0.50000  0.35530  Biso   1.000  B 
  B398     1.0000 0.85530  0.50000  0.29420  Biso   1.000  B 
  B399     1.0000 0.75800  0.50000  0.32050  Biso   1.000  B 
  B400     1.0000 0.78510  0.50000  0.38860  Biso   1.000  B 
  B401     1.0000 0.82050  0.50000  0.25800  Biso   1.000  B 
  B402     1.0000 0.88860  0.50000  0.28510  Biso   1.000  B 
  B403     1.0000 0.76930  0.50000  0.26930  Biso   1.000  B 
  B404     1.0000 0.73070  0.50000  0.23070  Biso   1.000  B 
  B405     1.0000 0.72490  0.50000  0.33050  Biso   1.000  B 
  B406     1.0000 0.67950  0.50000  0.24200  Biso   1.000  B 
  N29      1.0000 0.84215  0.49686  0.20392  Biso   1.000  N 
  B407     1.0000 0.74200  0.50000  0.17950  Biso   1.000  B 
  B408     1.0000 0.64470  0.50000  0.20580  Biso   1.000  B 
  N30      1.0000 0.65905  0.49071  0.29471  Biso   1.000  N 
  B409     1.0000 0.70580  0.50000  0.14470  Biso   1.000  B 
  B410     1.0000 0.77510  0.50000  0.16950  Biso   1.000  B 
  B411     1.0000 0.65650  0.50000  0.15650  Biso   1.000  B 
  B412     1.0000 0.61720  0.50000  0.11720  Biso   1.000  B 
  B413     1.0000 0.61140  0.50000  0.21490  Biso   1.000  B 
  B414     1.0000 0.71490  0.50000  0.11140  Biso   1.000  B 
  B415     1.0000 0.57190  0.50000  0.13260  Biso   1.000  B 
  B416     1.0000 0.63260  0.50000  0.07190  Biso   1.000  B 
  C85      1.0000 0.63985  0.43976  0.30094  Biso   1.000  C 
  C86      1.0000 0.87573  0.53955  0.19968  Biso   1.000  C 
  C87      1.0000 0.64225  0.41933  0.35460  Biso   1.000  C 
  C88      1.0000 0.88608  0.55146  0.14422  Biso   1.000  C 
  H225     1.0000 0.86601  0.46628  0.20203  Biso   1.000  H 
  H226     1.0000 0.63188  0.51702  0.30349  Biso   1.000  H 
  C89      1.0000 0.92354  0.52174  0.11562  Biso   1.000  C 
  H227     1.0000 0.85732  0.57377  0.22174  Biso   1.000  H 
  H228     1.0000 0.66350  0.41396  0.27930  Biso   1.000  H 
  H229     1.0000 0.94585  0.50185  0.14031  Biso   1.000  H 
  H230     1.0000 0.94461  0.54915  0.09226  Biso   1.000  H 
  H231     1.0000 0.90686  0.49236  0.08958  Biso   1.000  H 
  C90      1.0000 0.59928  0.43636  0.38722  Biso   1.000  C 
  H232     1.0000 0.59599  0.47674  0.38364  Biso   1.000  H 
  H233     1.0000 0.60712  0.42552  0.42651  Biso   1.000  H 
  H234     1.0000 0.56346  0.41874  0.37570  Biso   1.000  H 
  H235     1.0000 0.60164  0.43727  0.28563  Biso   1.000  H 
  H236     1.0000 0.91370  0.53238  0.21799  Biso   1.000  H 
  H237     1.0000 0.67827  0.43186  0.37170  Biso   1.000  H 
  H238     1.0000 0.64088  0.37836  0.35386  Biso   1.000  H 
  H239     1.0000 0.90109  0.59165  0.14390  Biso   1.000  H 
  H240     1.0000 0.84910  0.55260  0.12453  Biso   1.000  H 
  B417     1.0000 0.13260  0.50000  0.42810  Biso   1.000  B 
  B418     1.0000 0.11720  0.50000  0.38280  Biso   1.000  B 
  B419     1.0000 0.07190  0.50000  0.36740  Biso   1.000  B 
  B420     1.0000 0.15650  0.50000  0.34350  Biso   1.000  B 
  B421     1.0000 0.20580  0.50000  0.35530  Biso   1.000  B 
  B422     1.0000 0.14470  0.50000  0.29420  Biso   1.000  B 
  B423     1.0000 0.24200  0.50000  0.32050  Biso   1.000  B 
  B424     1.0000 0.21490  0.50000  0.38860  Biso   1.000  B 
  B425     1.0000 0.17950  0.50000  0.25800  Biso   1.000  B 
  B426     1.0000 0.11140  0.50000  0.28510  Biso   1.000  B 
  B427     1.0000 0.23070  0.50000  0.26930  Biso   1.000  B 
  B428     1.0000 0.26930  0.50000  0.23070  Biso   1.000  B 
  B429     1.0000 0.27510  0.50000  0.33050  Biso   1.000  B 
  B430     1.0000 0.32050  0.50000  0.24200  Biso   1.000  B 
  N31      1.0000 0.15785  0.50314  0.20392  Biso   1.000  N 
  B431     1.0000 0.25800  0.50000  0.17950  Biso   1.000  B 
  B432     1.0000 0.35530  0.50000  0.20580  Biso   1.000  B 
  N32      1.0000 0.34096  0.50929  0.29471  Biso   1.000  N 
  B433     1.0000 0.29420  0.50000  0.14470  Biso   1.000  B 
  B434     1.0000 0.22490  0.50000  0.16950  Biso   1.000  B 
  B435     1.0000 0.34350  0.50000  0.15650  Biso   1.000  B 
  B436     1.0000 0.38280  0.50000  0.11720  Biso   1.000  B 
  B437     1.0000 0.38860  0.50000  0.21490  Biso   1.000  B 
  B438     1.0000 0.28510  0.50000  0.11140  Biso   1.000  B 
  B439     1.0000 0.42810  0.50000  0.13260  Biso   1.000  B 
  B440     1.0000 0.36740  0.50000  0.07190  Biso   1.000  B 
  C91      1.0000 0.36015  0.56024  0.30094  Biso   1.000  C 
  C92      1.0000 0.12427  0.46045  0.19968  Biso   1.000  C 
  C93      1.0000 0.35775  0.58067  0.35460  Biso   1.000  C 
  C94      1.0000 0.11392  0.44854  0.14422  Biso   1.000  C 
  H241     1.0000 0.13399  0.53372  0.20203  Biso   1.000  H 
  H242     1.0000 0.36812  0.48298  0.30349  Biso   1.000  H 
  C95      1.0000 0.07646  0.47826  0.11562  Biso   1.000  C 
  H243     1.0000 0.14267  0.42623  0.22174  Biso   1.000  H 
  H244     1.0000 0.33650  0.58604  0.27930  Biso   1.000  H 
  H245     1.0000 0.05415  0.49815  0.14031  Biso   1.000  H 
  H246     1.0000 0.05540  0.45085  0.09226  Biso   1.000  H 
  H247     1.0000 0.09314  0.50764  0.08958  Biso   1.000  H 
  C96      1.0000 0.40072  0.56364  0.38722  Biso   1.000  C 
  H248     1.0000 0.40401  0.52326  0.38364  Biso   1.000  H 
  H249     1.0000 0.39288  0.57448  0.42651  Biso   1.000  H 
  H250     1.0000 0.43654  0.58126  0.37570  Biso   1.000  H 
  H251     1.0000 0.39836  0.56273  0.28563  Biso   1.000  H 
  H252     1.0000 0.08630  0.46762  0.21799  Biso   1.000  H 
  H253     1.0000 0.32173  0.56814  0.37170  Biso   1.000  H 
  H254     1.0000 0.35912  0.62164  0.35386  Biso   1.000  H 
  H255     1.0000 0.09891  0.40835  0.14390  Biso   1.000  H 
  H256     1.0000 0.15090  0.44740  0.12453  Biso   1.000  H 
  B441     1.0000 0.07190  0.63260  0.50000  Biso   1.000  B 
  B442     1.0000 0.11720  0.61720  0.50000  Biso   1.000  B 
  B443     1.0000 0.13260  0.57190  0.50000  Biso   1.000  B 
  B444     1.0000 0.15650  0.65650  0.50000  Biso   1.000  B 
  B445     1.0000 0.14470  0.70580  0.50000  Biso   1.000  B 
  B446     1.0000 0.20580  0.64470  0.50000  Biso   1.000  B 
  B447     1.0000 0.17950  0.74200  0.50000  Biso   1.000  B 
  B448     1.0000 0.11140  0.71490  0.50000  Biso   1.000  B 
  B449     1.0000 0.24200  0.67950  0.50000  Biso   1.000  B 
  B450     1.0000 0.21490  0.61140  0.50000  Biso   1.000  B 
  B451     1.0000 0.23070  0.73070  0.50000  Biso   1.000  B 
  B452     1.0000 0.26930  0.76930  0.50000  Biso   1.000  B 
  B453     1.0000 0.16950  0.77510  0.50000  Biso   1.000  B 
  B454     1.0000 0.25800  0.82050  0.50000  Biso   1.000  B 
  N33      1.0000 0.29254  0.65963  0.51978  Biso   1.000  N 
  B455     1.0000 0.32050  0.75800  0.50000  Biso   1.000  B 
  B456     1.0000 0.29420  0.85530  0.50000  Biso   1.000  B 
  N34      1.0000 0.20920  0.83946  0.47706  Biso   1.000  N 
  B457     1.0000 0.35530  0.79420  0.50000  Biso   1.000  B 
  B458     1.0000 0.33050  0.72490  0.50000  Biso   1.000  B 
  B459     1.0000 0.34350  0.84350  0.50000  Biso   1.000  B 
  B460     1.0000 0.38280  0.88280  0.50000  Biso   1.000  B 
  B461     1.0000 0.28510  0.88860  0.50000  Biso   1.000  B 
  B462     1.0000 0.38860  0.78510  0.50000  Biso   1.000  B 
  B463     1.0000 0.36740  0.92810  0.50000  Biso   1.000  B 
  B464     1.0000 0.42810  0.86740  0.50000  Biso   1.000  B 
  C97      1.0000 0.22045  0.85422  0.42538  Biso   1.000  C 
  C98      1.0000 0.29538  0.64507  0.57261  Biso   1.000  C 
  C99      1.0000 0.17405  0.85419  0.39226  Biso   1.000  C 
  C100     1.0000 0.27026  0.68067  0.60553  Biso   1.000  C 
  H257     1.0000 0.30158  0.62730  0.49979  Biso   1.000  H 
  H258     1.0000 0.19803  0.87112  0.49686  Biso   1.000  H 
  C101     1.0000 0.26860  0.66024  0.65934  Biso   1.000  C 
  H259     1.0000 0.27823  0.60802  0.57624  Biso   1.000  H 
  H260     1.0000 0.24815  0.82789  0.40881  Biso   1.000  H 
  H261     1.0000 0.27920  0.69128  0.68672  Biso   1.000  H 
  H262     1.0000 0.29540  0.62832  0.66427  Biso   1.000  H 
  H263     1.0000 0.23091  0.64729  0.66249  Biso   1.000  H 
  C102     1.0000 0.18685  0.85142  0.33685  Biso   1.000  C 
  H264     1.0000 0.15172  0.84393  0.31665  Biso   1.000  H 
  H265     1.0000 0.21400  0.82145  0.32839  Biso   1.000  H 
  H266     1.0000 0.20237  0.88812  0.32530  Biso   1.000  H 
  H267     1.0000 0.23697  0.89220  0.42506  Biso   1.000  H 
  H268     1.0000 0.33490  0.63752  0.57976  Biso   1.000  H 
  H269     1.0000 0.15267  0.88841  0.40024  Biso   1.000  H 
  H270     1.0000 0.15012  0.82198  0.40109  Biso   1.000  H 
  H271     1.0000 0.23266  0.69366  0.59577  Biso   1.000  H 
  H272     1.0000 0.29248  0.71155  0.61110  Biso   1.000  H 
  B465     1.0000 0.07190  0.36740  0.50000  Biso   1.000  B 
  B466     1.0000 0.11720  0.38280  0.50000  Biso   1.000  B 
  B467     1.0000 0.13260  0.42810  0.50000  Biso   1.000  B 
  B468     1.0000 0.15650  0.34350  0.50000  Biso   1.000  B 
  B469     1.0000 0.14470  0.29420  0.50000  Biso   1.000  B 
  B470     1.0000 0.20580  0.35530  0.50000  Biso   1.000  B 
  B471     1.0000 0.17950  0.25800  0.50000  Biso   1.000  B 
  B472     1.0000 0.11140  0.28510  0.50000  Biso   1.000  B 
  B473     1.0000 0.24200  0.32050  0.50000  Biso   1.000  B 
  B474     1.0000 0.21490  0.38860  0.50000  Biso   1.000  B 
  B475     1.0000 0.23070  0.26930  0.50000  Biso   1.000  B 
  B476     1.0000 0.26930  0.23070  0.50000  Biso   1.000  B 
  B477     1.0000 0.16950  0.22490  0.50000  Biso   1.000  B 
  B478     1.0000 0.25800  0.17950  0.50000  Biso   1.000  B 
  N35      1.0000 0.29254  0.34037  0.48022  Biso   1.000  N 
  B479     1.0000 0.32050  0.24200  0.50000  Biso   1.000  B 
  B480     1.0000 0.29420  0.14470  0.50000  Biso   1.000  B 
  N36      1.0000 0.20920  0.16054  0.52294  Biso   1.000  N 
  B481     1.0000 0.35530  0.20580  0.50000  Biso   1.000  B 
  B482     1.0000 0.33050  0.27510  0.50000  Biso   1.000  B 
  B483     1.0000 0.34350  0.15650  0.50000  Biso   1.000  B 
  B484     1.0000 0.38280  0.11720  0.50000  Biso   1.000  B 
  B485     1.0000 0.28510  0.11140  0.50000  Biso   1.000  B 
  B486     1.0000 0.38860  0.21490  0.50000  Biso   1.000  B 
  B487     1.0000 0.36740  0.07190  0.50000  Biso   1.000  B 
  B488     1.0000 0.42810  0.13260  0.50000  Biso   1.000  B 
  C103     1.0000 0.22045  0.14579  0.57462  Biso   1.000  C 
  C104     1.0000 0.29538  0.35493  0.42739  Biso   1.000  C 
  C105     1.0000 0.17405  0.14581  0.60774  Biso   1.000  C 
  C106     1.0000 0.27026  0.31933  0.39447  Biso   1.000  C 
  H273     1.0000 0.30158  0.37270  0.50021  Biso   1.000  H 
  H274     1.0000 0.19803  0.12888  0.50314  Biso   1.000  H 
  C107     1.0000 0.26860  0.33976  0.34066  Biso   1.000  C 
  H275     1.0000 0.27823  0.39198  0.42376  Biso   1.000  H 
  H276     1.0000 0.24815  0.17211  0.59119  Biso   1.000  H 
  H277     1.0000 0.27920  0.30872  0.31329  Biso   1.000  H 
  H278     1.0000 0.29540  0.37168  0.33574  Biso   1.000  H 
  H279     1.0000 0.23091  0.35271  0.33751  Biso   1.000  H 
  C108     1.0000 0.18685  0.14858  0.66315  Biso   1.000  C 
  H280     1.0000 0.15172  0.15607  0.68335  Biso   1.000  H 
  H281     1.0000 0.21400  0.17855  0.67161  Biso   1.000  H 
  H282     1.0000 0.20237  0.11188  0.67470  Biso   1.000  H 
  H283     1.0000 0.23697  0.10780  0.57494  Biso   1.000  H 
  H284     1.0000 0.33490  0.36248  0.42024  Biso   1.000  H 
  H285     1.0000 0.15267  0.11159  0.59976  Biso   1.000  H 
  H286     1.0000 0.15012  0.17802  0.59891  Biso   1.000  H 
  H287     1.0000 0.23266  0.30634  0.40423  Biso   1.000  H 
  H288     1.0000 0.29248  0.28845  0.38890  Biso   1.000  H 
  B489     1.0000 0.92810  0.36740  0.50000  Biso   1.000  B 
  B490     1.0000 0.88280  0.38280  0.50000  Biso   1.000  B 
  B491     1.0000 0.86740  0.42810  0.50000  Biso   1.000  B 
  B492     1.0000 0.84350  0.34350  0.50000  Biso   1.000  B 
  B493     1.0000 0.85530  0.29420  0.50000  Biso   1.000  B 
  B494     1.0000 0.79420  0.35530  0.50000  Biso   1.000  B 
  B495     1.0000 0.82050  0.25800  0.50000  Biso   1.000  B 
  B496     1.0000 0.88860  0.28510  0.50000  Biso   1.000  B 
  B497     1.0000 0.75800  0.32050  0.50000  Biso   1.000  B 
  B498     1.0000 0.78510  0.38860  0.50000  Biso   1.000  B 
  B499     1.0000 0.76930  0.26930  0.50000  Biso   1.000  B 
  B500     1.0000 0.73070  0.23070  0.50000  Biso   1.000  B 
  B501     1.0000 0.83050  0.22490  0.50000  Biso   1.000  B 
  B502     1.0000 0.74200  0.17950  0.50000  Biso   1.000  B 
  N37      1.0000 0.70745  0.34037  0.51978  Biso   1.000  N 
  B503     1.0000 0.67950  0.24200  0.50000  Biso   1.000  B 
  B504     1.0000 0.70580  0.14470  0.50000  Biso   1.000  B 
  N38      1.0000 0.79080  0.16054  0.47706  Biso   1.000  N 
  B505     1.0000 0.64470  0.20580  0.50000  Biso   1.000  B 
  B506     1.0000 0.66950  0.27510  0.50000  Biso   1.000  B 
  B507     1.0000 0.65650  0.15650  0.50000  Biso   1.000  B 
  B508     1.0000 0.61720  0.11720  0.50000  Biso   1.000  B 
  B509     1.0000 0.71490  0.11140  0.50000  Biso   1.000  B 
  B510     1.0000 0.61140  0.21490  0.50000  Biso   1.000  B 
  B511     1.0000 0.63260  0.07190  0.50000  Biso   1.000  B 
  B512     1.0000 0.57190  0.13260  0.50000  Biso   1.000  B 
  C109     1.0000 0.77955  0.14579  0.42538  Biso   1.000  C 
  C110     1.0000 0.70462  0.35493  0.57261  Biso   1.000  C 
  C111     1.0000 0.82595  0.14581  0.39226  Biso   1.000  C 
  C112     1.0000 0.72974  0.31933  0.60553  Biso   1.000  C 
  H289     1.0000 0.69842  0.37270  0.49979  Biso   1.000  H 
  H290     1.0000 0.80197  0.12888  0.49686  Biso   1.000  H 
  C113     1.0000 0.73140  0.33976  0.65934  Biso   1.000  C 
  H291     1.0000 0.72177  0.39198  0.57624  Biso   1.000  H 
  H292     1.0000 0.75184  0.17211  0.40881  Biso   1.000  H 
  H293     1.0000 0.72081  0.30872  0.68672  Biso   1.000  H 
  H294     1.0000 0.70460  0.37168  0.66427  Biso   1.000  H 
  H295     1.0000 0.76908  0.35271  0.66249  Biso   1.000  H 
  C114     1.0000 0.81315  0.14858  0.33685  Biso   1.000  C 
  H296     1.0000 0.84828  0.15607  0.31665  Biso   1.000  H 
  H297     1.0000 0.78600  0.17855  0.32839  Biso   1.000  H 
  H298     1.0000 0.79764  0.11188  0.32530  Biso   1.000  H 
  H299     1.0000 0.76303  0.10780  0.42506  Biso   1.000  H 
  H300     1.0000 0.66510  0.36248  0.57976  Biso   1.000  H 
  H301     1.0000 0.84733  0.11159  0.40024  Biso   1.000  H 
  H302     1.0000 0.84988  0.17802  0.40109  Biso   1.000  H 
  H303     1.0000 0.76734  0.30634  0.59577  Biso   1.000  H 
  H304     1.0000 0.70752  0.28845  0.61110  Biso   1.000  H 
  B513     1.0000 0.92810  0.63260  0.50000  Biso   1.000  B 
  B514     1.0000 0.88280  0.61720  0.50000  Biso   1.000  B 
  B515     1.0000 0.86740  0.57190  0.50000  Biso   1.000  B 
  B516     1.0000 0.84350  0.65650  0.50000  Biso   1.000  B 
  B517     1.0000 0.85530  0.70580  0.50000  Biso   1.000  B 
  B518     1.0000 0.79420  0.64470  0.50000  Biso   1.000  B 
  B519     1.0000 0.82050  0.74200  0.50000  Biso   1.000  B 
  B520     1.0000 0.88860  0.71490  0.50000  Biso   1.000  B 
  B521     1.0000 0.75800  0.67950  0.50000  Biso   1.000  B 
  B522     1.0000 0.78510  0.61140  0.50000  Biso   1.000  B 
  B523     1.0000 0.76930  0.73070  0.50000  Biso   1.000  B 
  B524     1.0000 0.73070  0.76930  0.50000  Biso   1.000  B 
  B525     1.0000 0.83050  0.77510  0.50000  Biso   1.000  B 
  B526     1.0000 0.74200  0.82050  0.50000  Biso   1.000  B 
  N39      1.0000 0.70745  0.65963  0.48022  Biso   1.000  N 
  B527     1.0000 0.67950  0.75800  0.50000  Biso   1.000  B 
  B528     1.0000 0.70580  0.85530  0.50000  Biso   1.000  B 
  N40      1.0000 0.79080  0.83946  0.52294  Biso   1.000  N 
  B529     1.0000 0.64470  0.79420  0.50000  Biso   1.000  B 
  B530     1.0000 0.66950  0.72490  0.50000  Biso   1.000  B 
  B531     1.0000 0.65650  0.84350  0.50000  Biso   1.000  B 
  B532     1.0000 0.61720  0.88280  0.50000  Biso   1.000  B 
  B533     1.0000 0.71490  0.88860  0.50000  Biso   1.000  B 
  B534     1.0000 0.61140  0.78510  0.50000  Biso   1.000  B 
  B535     1.0000 0.63260  0.92810  0.50000  Biso   1.000  B 
  B536     1.0000 0.57190  0.86740  0.50000  Biso   1.000  B 
  C115     1.0000 0.77955  0.85422  0.57462  Biso   1.000  C 
  C116     1.0000 0.70462  0.64507  0.42739  Biso   1.000  C 
  C117     1.0000 0.82595  0.85419  0.60774  Biso   1.000  C 
  C118     1.0000 0.72974  0.68067  0.39447  Biso   1.000  C 
  H305     1.0000 0.69842  0.62730  0.50021  Biso   1.000  H 
  H306     1.0000 0.80197  0.87112  0.50314  Biso   1.000  H 
  C119     1.0000 0.73140  0.66024  0.34066  Biso   1.000  C 
  H307     1.0000 0.72177  0.60802  0.42376  Biso   1.000  H 
  H308     1.0000 0.75184  0.82789  0.59119  Biso   1.000  H 
  H309     1.0000 0.72081  0.69128  0.31329  Biso   1.000  H 
  H310     1.0000 0.70460  0.62832  0.33574  Biso   1.000  H 
  H311     1.0000 0.76908  0.64729  0.33751  Biso   1.000  H 
  C120     1.0000 0.81315  0.85142  0.66315  Biso   1.000  C 
  H312     1.0000 0.84828  0.84393  0.68335  Biso   1.000  H 
  H313     1.0000 0.78600  0.82145  0.67161  Biso   1.000  H 
  H314     1.0000 0.79764  0.88812  0.67470  Biso   1.000  H 
  H315     1.0000 0.76303  0.89220  0.57494  Biso   1.000  H 
  H316     1.0000 0.66510  0.63752  0.42024  Biso   1.000  H 
  H317     1.0000 0.84733  0.88841  0.59976  Biso   1.000  H 
  H318     1.0000 0.84988  0.82198  0.59891  Biso   1.000  H 
  H319     1.0000 0.76734  0.69366  0.40423  Biso   1.000  H 
  H320     1.0000 0.70752  0.71155  0.38890  Biso   1.000  H 
  B537     1.0000 0.50000  0.07190  0.63260  Biso   1.000  B 
  B538     1.0000 0.50000  0.11720  0.61720  Biso   1.000  B 
  B539     1.0000 0.50000  0.13260  0.57190  Biso   1.000  B 
  B540     1.0000 0.50000  0.15650  0.65650  Biso   1.000  B 
  B541     1.0000 0.50000  0.14470  0.70580  Biso   1.000  B 
  B542     1.0000 0.50000  0.20580  0.64470  Biso   1.000  B 
  B543     1.0000 0.50000  0.17950  0.74200  Biso   1.000  B 
  B544     1.0000 0.50000  0.11140  0.71490  Biso   1.000  B 
  B545     1.0000 0.50000  0.24200  0.67950  Biso   1.000  B 
  B546     1.0000 0.50000  0.21490  0.61140  Biso   1.000  B 
  B547     1.0000 0.50000  0.23070  0.73070  Biso   1.000  B 
  B548     1.0000 0.50000  0.26930  0.76930  Biso   1.000  B 
  B549     1.0000 0.50000  0.16950  0.77510  Biso   1.000  B 
  B550     1.0000 0.50000  0.25800  0.82050  Biso   1.000  B 
  N41      1.0000 0.49282  0.29265  0.65703  Biso   1.000  N 
  B551     1.0000 0.50000  0.32050  0.75800  Biso   1.000  B 
  B552     1.0000 0.50000  0.29420  0.85530  Biso   1.000  B 
  N42      1.0000 0.47280  0.21087  0.83665  Biso   1.000  N 
  B553     1.0000 0.50000  0.35530  0.79420  Biso   1.000  B 
  B554     1.0000 0.50000  0.33050  0.72490  Biso   1.000  B 
  B555     1.0000 0.50000  0.34350  0.84350  Biso   1.000  B 
  B556     1.0000 0.50000  0.38280  0.88280  Biso   1.000  B 
  B557     1.0000 0.50000  0.28510  0.88860  Biso   1.000  B 
  B558     1.0000 0.50000  0.38860  0.78510  Biso   1.000  B 
  B559     1.0000 0.50000  0.36740  0.92810  Biso   1.000  B 
  B560     1.0000 0.50000  0.42810  0.86740  Biso   1.000  B 
  C121     1.0000 0.42045  0.22459  0.83895  Biso   1.000  C 
  C122     1.0000 0.53925  0.30202  0.62894  Biso   1.000  C 
  C123     1.0000 0.38773  0.18194  0.85590  Biso   1.000  C 
  C124     1.0000 0.55466  0.35975  0.62255  Biso   1.000  C 
  H321     1.0000 0.46305  0.29658  0.63057  Biso   1.000  H 
  H322     1.0000 0.48552  0.19996  0.87175  Biso   1.000  H 
  C125     1.0000 0.54509  0.37976  0.56990  Biso   1.000  C 
  H323     1.0000 0.57491  0.28440  0.64794  Biso   1.000  H 
  H324     1.0000 0.40808  0.23731  0.80157  Biso   1.000  H 
  H325     1.0000 0.54401  0.34927  0.54198  Biso   1.000  H 
  H326     1.0000 0.57446  0.40685  0.55839  Biso   1.000  H 
  H327     1.0000 0.50984  0.39968  0.56998  Biso   1.000  H 
  C126     1.0000 0.33139  0.19404  0.84914  Biso   1.000  C 
  H328     1.0000 0.31185  0.15772  0.85181  Biso   1.000  H 
  H329     1.0000 0.32229  0.21177  0.81299  Biso   1.000  H 
  H330     1.0000 0.31826  0.21902  0.87927  Biso   1.000  H 
  H331     1.0000 0.41388  0.25493  0.86620  Biso   1.000  H 
  H332     1.0000 0.53806  0.28399  0.59108  Biso   1.000  H 
  H333     1.0000 0.39569  0.17581  0.89611  Biso   1.000  H 
  H334     1.0000 0.39735  0.14742  0.83552  Biso   1.000  H 
  H335     1.0000 0.59672  0.36273  0.62919  Biso   1.000  H 
  H336     1.0000 0.53396  0.38448  0.64896  Biso   1.000  H 
  B561     1.0000 0.50000  0.07190  0.36740  Biso   1.000  B 
  B562     1.0000 0.50000  0.11720  0.38280  Biso   1.000  B 
  B563     1.0000 0.50000  0.13260  0.42810  Biso   1.000  B 
  B564     1.0000 0.50000  0.15650  0.34350  Biso   1.000  B 
  B565     1.0000 0.50000  0.14470  0.29420  Biso   1.000  B 
  B566     1.0000 0.50000  0.20580  0.35530  Biso   1.000  B 
  B567     1.0000 0.50000  0.17950  0.25800  Biso   1.000  B 
  B568     1.0000 0.50000  0.11140  0.28510  Biso   1.000  B 
  B569     1.0000 0.50000  0.24200  0.32050  Biso   1.000  B 
  B570     1.0000 0.50000  0.21490  0.38860  Biso   1.000  B 
  B571     1.0000 0.50000  0.23070  0.26930  Biso   1.000  B 
  B572     1.0000 0.50000  0.26930  0.23070  Biso   1.000  B 
  B573     1.0000 0.50000  0.16950  0.22490  Biso   1.000  B 
  B574     1.0000 0.50000  0.25800  0.17950  Biso   1.000  B 
  N43      1.0000 0.50718  0.29265  0.34297  Biso   1.000  N 
  B575     1.0000 0.50000  0.32050  0.24200  Biso   1.000  B 
  B576     1.0000 0.50000  0.29420  0.14470  Biso   1.000  B 
  N44      1.0000 0.52720  0.21087  0.16335  Biso   1.000  N 
  B577     1.0000 0.50000  0.35530  0.20580  Biso   1.000  B 
  B578     1.0000 0.50000  0.33050  0.27510  Biso   1.000  B 
  B579     1.0000 0.50000  0.34350  0.15650  Biso   1.000  B 
  B580     1.0000 0.50000  0.38280  0.11720  Biso   1.000  B 
  B581     1.0000 0.50000  0.28510  0.11140  Biso   1.000  B 
  B582     1.0000 0.50000  0.38860  0.21490  Biso   1.000  B 
  B583     1.0000 0.50000  0.36740  0.07190  Biso   1.000  B 
  B584     1.0000 0.50000  0.42810  0.13260  Biso   1.000  B 
  C127     1.0000 0.57955  0.22459  0.16105  Biso   1.000  C 
  C128     1.0000 0.46075  0.30202  0.37106  Biso   1.000  C 
  C129     1.0000 0.61227  0.18194  0.14410  Biso   1.000  C 
  C130     1.0000 0.44534  0.35975  0.37745  Biso   1.000  C 
  H337     1.0000 0.53695  0.29658  0.36943  Biso   1.000  H 
  H338     1.0000 0.51448  0.19996  0.12825  Biso   1.000  H 
  C131     1.0000 0.45491  0.37976  0.43010  Biso   1.000  C 
  H339     1.0000 0.42509  0.28440  0.35205  Biso   1.000  H 
  H340     1.0000 0.59192  0.23731  0.19843  Biso   1.000  H 
  H341     1.0000 0.45599  0.34927  0.45802  Biso   1.000  H 
  H342     1.0000 0.42554  0.40685  0.44161  Biso   1.000  H 
  H343     1.0000 0.49016  0.39968  0.43002  Biso   1.000  H 
  C132     1.0000 0.66861  0.19404  0.15086  Biso   1.000  C 
  H344     1.0000 0.68815  0.15772  0.14818  Biso   1.000  H 
  H345     1.0000 0.67771  0.21177  0.18701  Biso   1.000  H 
  H346     1.0000 0.68174  0.21902  0.12073  Biso   1.000  H 
  H347     1.0000 0.58612  0.25493  0.13380  Biso   1.000  H 
  H348     1.0000 0.46194  0.28399  0.40892  Biso   1.000  H 
  H349     1.0000 0.60431  0.17581  0.10389  Biso   1.000  H 
  H350     1.0000 0.60265  0.14742  0.16448  Biso   1.000  H 
  H351     1.0000 0.40328  0.36273  0.37081  Biso   1.000  H 
  H352     1.0000 0.46604  0.38448  0.35104  Biso   1.000  H 
  B585     1.0000 0.50000  0.92810  0.36740  Biso   1.000  B 
  B586     1.0000 0.50000  0.88280  0.38280  Biso   1.000  B 
  B587     1.0000 0.50000  0.86740  0.42810  Biso   1.000  B 
  B588     1.0000 0.50000  0.84350  0.34350  Biso   1.000  B 
  B589     1.0000 0.50000  0.85530  0.29420  Biso   1.000  B 
  B590     1.0000 0.50000  0.79420  0.35530  Biso   1.000  B 
  B591     1.0000 0.50000  0.82050  0.25800  Biso   1.000  B 
  B592     1.0000 0.50000  0.88860  0.28510  Biso   1.000  B 
  B593     1.0000 0.50000  0.75800  0.32050  Biso   1.000  B 
  B594     1.0000 0.50000  0.78510  0.38860  Biso   1.000  B 
  B595     1.0000 0.50000  0.76930  0.26930  Biso   1.000  B 
  B596     1.0000 0.50000  0.73070  0.23070  Biso   1.000  B 
  B597     1.0000 0.50000  0.83050  0.22490  Biso   1.000  B 
  B598     1.0000 0.50000  0.74200  0.17950  Biso   1.000  B 
  N45      1.0000 0.49282  0.70735  0.34297  Biso   1.000  N 
  B599     1.0000 0.50000  0.67950  0.24200  Biso   1.000  B 
  B600     1.0000 0.50000  0.70580  0.14470  Biso   1.000  B 
  N46      1.0000 0.47280  0.78913  0.16335  Biso   1.000  N 
  B601     1.0000 0.50000  0.64470  0.20580  Biso   1.000  B 
  B602     1.0000 0.50000  0.66950  0.27510  Biso   1.000  B 
  B603     1.0000 0.50000  0.65650  0.15650  Biso   1.000  B 
  B604     1.0000 0.50000  0.61720  0.11720  Biso   1.000  B 
  B605     1.0000 0.50000  0.71490  0.11140  Biso   1.000  B 
  B606     1.0000 0.50000  0.61140  0.21490  Biso   1.000  B 
  B607     1.0000 0.50000  0.63260  0.07190  Biso   1.000  B 
  B608     1.0000 0.50000  0.57190  0.13260  Biso   1.000  B 
  C133     1.0000 0.42045  0.77541  0.16105  Biso   1.000  C 
  C134     1.0000 0.53925  0.69798  0.37106  Biso   1.000  C 
  C135     1.0000 0.38773  0.81806  0.14410  Biso   1.000  C 
  C136     1.0000 0.55466  0.64026  0.37745  Biso   1.000  C 
  H353     1.0000 0.46305  0.70342  0.36943  Biso   1.000  H 
  H354     1.0000 0.48552  0.80004  0.12825  Biso   1.000  H 
  C137     1.0000 0.54509  0.62024  0.43010  Biso   1.000  C 
  H355     1.0000 0.57491  0.71560  0.35205  Biso   1.000  H 
  H356     1.0000 0.40808  0.76269  0.19843  Biso   1.000  H 
  H357     1.0000 0.54401  0.65073  0.45802  Biso   1.000  H 
  H358     1.0000 0.57446  0.59315  0.44161  Biso   1.000  H 
  H359     1.0000 0.50984  0.60032  0.43002  Biso   1.000  H 
  C138     1.0000 0.33139  0.80596  0.15086  Biso   1.000  C 
  H360     1.0000 0.31185  0.84228  0.14818  Biso   1.000  H 
  H361     1.0000 0.32229  0.78823  0.18701  Biso   1.000  H 
  H362     1.0000 0.31826  0.78098  0.12073  Biso   1.000  H 
  H363     1.0000 0.41388  0.74507  0.13380  Biso   1.000  H 
  H364     1.0000 0.53806  0.71601  0.40892  Biso   1.000  H 
  H365     1.0000 0.39569  0.82419  0.10389  Biso   1.000  H 
  H366     1.0000 0.39735  0.85258  0.16448  Biso   1.000  H 
  H367     1.0000 0.59672  0.63727  0.37081  Biso   1.000  H 
  H368     1.0000 0.53396  0.61552  0.35104  Biso   1.000  H 
  B609     1.0000 0.50000  0.92810  0.63260  Biso   1.000  B 
  B610     1.0000 0.50000  0.88280  0.61720  Biso   1.000  B 
  B611     1.0000 0.50000  0.86740  0.57190  Biso   1.000  B 
  B612     1.0000 0.50000  0.84350  0.65650  Biso   1.000  B 
  B613     1.0000 0.50000  0.85530  0.70580  Biso   1.000  B 
  B614     1.0000 0.50000  0.79420  0.64470  Biso   1.000  B 
  B615     1.0000 0.50000  0.82050  0.74200  Biso   1.000  B 
  B616     1.0000 0.50000  0.88860  0.71490  Biso   1.000  B 
  B617     1.0000 0.50000  0.75800  0.67950  Biso   1.000  B 
  B618     1.0000 0.50000  0.78510  0.61140  Biso   1.000  B 
  B619     1.0000 0.50000  0.76930  0.73070  Biso   1.000  B 
  B620     1.0000 0.50000  0.73070  0.76930  Biso   1.000  B 
  B621     1.0000 0.50000  0.83050  0.77510  Biso   1.000  B 
  B622     1.0000 0.50000  0.74200  0.82050  Biso   1.000  B 
  N47      1.0000 0.50718  0.70735  0.65703  Biso   1.000  N 
  B623     1.0000 0.50000  0.67950  0.75800  Biso   1.000  B 
  B624     1.0000 0.50000  0.70580  0.85530  Biso   1.000  B 
  N48      1.0000 0.52720  0.78913  0.83665  Biso   1.000  N 
  B625     1.0000 0.50000  0.64470  0.79420  Biso   1.000  B 
  B626     1.0000 0.50000  0.66950  0.72490  Biso   1.000  B 
  B627     1.0000 0.50000  0.65650  0.84350  Biso   1.000  B 
  B628     1.0000 0.50000  0.61720  0.88280  Biso   1.000  B 
  B629     1.0000 0.50000  0.71490  0.88860  Biso   1.000  B 
  B630     1.0000 0.50000  0.61140  0.78510  Biso   1.000  B 
  B631     1.0000 0.50000  0.63260  0.92810  Biso   1.000  B 
  B632     1.0000 0.50000  0.57190  0.86740  Biso   1.000  B 
  C139     1.0000 0.57955  0.77541  0.83895  Biso   1.000  C 
  C140     1.0000 0.46075  0.69798  0.62894  Biso   1.000  C 
  C141     1.0000 0.61227  0.81806  0.85590  Biso   1.000  C 
  C142     1.0000 0.44534  0.64026  0.62255  Biso   1.000  C 
  H369     1.0000 0.53695  0.70342  0.63057  Biso   1.000  H 
  H370     1.0000 0.51448  0.80004  0.87175  Biso   1.000  H 
  C143     1.0000 0.45491  0.62024  0.56990  Biso   1.000  C 
  H371     1.0000 0.42509  0.71560  0.64794  Biso   1.000  H 
  H372     1.0000 0.59192  0.76269  0.80157  Biso   1.000  H 
  H373     1.0000 0.45599  0.65073  0.54198  Biso   1.000  H 
  H374     1.0000 0.42554  0.59315  0.55839  Biso   1.000  H 
  H375     1.0000 0.49016  0.60032  0.56998  Biso   1.000  H 
  C144     1.0000 0.66861  0.80596  0.84914  Biso   1.000  C 
  H376     1.0000 0.68815  0.84228  0.85181  Biso   1.000  H 
  H377     1.0000 0.67771  0.78823  0.81299  Biso   1.000  H 
  H378     1.0000 0.68174  0.78098  0.87927  Biso   1.000  H 
  H379     1.0000 0.58612  0.74507  0.86620  Biso   1.000  H 
  H380     1.0000 0.46194  0.71601  0.59108  Biso   1.000  H 
  H381     1.0000 0.60431  0.82419  0.89611  Biso   1.000  H 
  H382     1.0000 0.60265  0.85258  0.83552  Biso   1.000  H 
  H383     1.0000 0.40328  0.63727  0.62919  Biso   1.000  H 
  H384     1.0000 0.46604  0.61552  0.64896  Biso   1.000  H 
