data_image0
_cell_length_a       20.7004
_cell_length_b       20.7004
_cell_length_c       20.7004
_cell_angle_alpha    90
_cell_angle_beta     90
_cell_angle_gamma    90

_symmetry_space_group_name_H-M    "P 1"
_symmetry_int_tables_number       1

loop_
  _symmetry_equiv_pos_as_xyz
  'x, y, z'

loop_
  _atom_site_label
  _atom_site_occupancy
  _atom_site_fract_x
  _atom_site_fract_y
  _atom_site_fract_z
  _atom_site_thermal_displace_type
  _atom_site_B_iso_or_equiv
  _atom_site_type_symbol
  B1       1.0000 0.11989  0.00000  0.00000  Biso   1.000  B 
  B2       1.0000 0.11989  0.50000  0.50000  Biso   1.000  B 
  B3       1.0000 0.61989  0.00000  0.50000  Biso   1.000  B 
  B4       1.0000 0.61989  0.50000  0.00000  Biso   1.000  B 
  B5       1.0000 0.88011  0.00000  0.00000  Biso   1.000  B 
  B6       1.0000 0.88011  0.50000  0.50000  Biso   1.000  B 
  B7       1.0000 0.38011  0.00000  0.50000  Biso   1.000  B 
  B8       1.0000 0.38011  0.50000  0.00000  Biso   1.000  B 
  B9       1.0000 0.00000  0.11989  0.00000  Biso   1.000  B 
  B10      1.0000 0.00000  0.61989  0.50000  Biso   1.000  B 
  B11      1.0000 0.50000  0.11989  0.50000  Biso   1.000  B 
  B12      1.0000 0.50000  0.61989  0.00000  Biso   1.000  B 
  B13      1.0000 0.00000  0.88011  0.00000  Biso   1.000  B 
  B14      1.0000 0.00000  0.38011  0.50000  Biso   1.000  B 
  B15      1.0000 0.50000  0.88011  0.50000  Biso   1.000  B 
  B16      1.0000 0.50000  0.38011  0.00000  Biso   1.000  B 
  B17      1.0000 0.00000  0.00000  0.11989  Biso   1.000  B 
  B18      1.0000 0.00000  0.50000  0.61989  Biso   1.000  B 
  B19      1.0000 0.50000  0.00000  0.61989  Biso   1.000  B 
  B20      1.0000 0.50000  0.50000  0.11989  Biso   1.000  B 
  B21      1.0000 0.00000  0.00000  0.88011  Biso   1.000  B 
  B22      1.0000 0.00000  0.50000  0.38011  Biso   1.000  B 
  B23      1.0000 0.50000  0.00000  0.38011  Biso   1.000  B 
  B24      1.0000 0.50000  0.50000  0.88011  Biso   1.000  B 
  B25      1.0000 0.05610  0.44390  0.44390  Biso   1.000  B 
  B26      1.0000 0.55610  0.94390  0.44390  Biso   1.000  B 
  B27      1.0000 0.55610  0.44390  0.94390  Biso   1.000  B 
  B28      1.0000 0.44390  0.05610  0.44390  Biso   1.000  B 
  B29      1.0000 0.44390  0.55610  0.94390  Biso   1.000  B 
  B30      1.0000 0.94390  0.94390  0.05610  Biso   1.000  B 
  B31      1.0000 0.94390  0.44390  0.55610  Biso   1.000  B 
  B32      1.0000 0.05610  0.05610  0.05610  Biso   1.000  B 
  B33      1.0000 0.55610  0.55610  0.05610  Biso   1.000  B 
  B34      1.0000 0.94390  0.05610  0.05610  Biso   1.000  B 
  B35      1.0000 0.94390  0.55610  0.55610  Biso   1.000  B 
  B36      1.0000 0.44390  0.05610  0.55610  Biso   1.000  B 
  B37      1.0000 0.44390  0.55610  0.05610  Biso   1.000  B 
  B38      1.0000 0.05610  0.94390  0.05610  Biso   1.000  B 
  B39      1.0000 0.05610  0.44390  0.55610  Biso   1.000  B 
  B40      1.0000 0.55610  0.94390  0.55610  Biso   1.000  B 
  B41      1.0000 0.55610  0.44390  0.05610  Biso   1.000  B 
  B42      1.0000 0.94390  0.94390  0.94390  Biso   1.000  B 
  B43      1.0000 0.94390  0.44390  0.44390  Biso   1.000  B 
  B44      1.0000 0.44390  0.94390  0.44390  Biso   1.000  B 
  B45      1.0000 0.44390  0.44390  0.94390  Biso   1.000  B 
  B46      1.0000 0.05610  0.05610  0.94390  Biso   1.000  B 
  B47      1.0000 0.05610  0.55610  0.44390  Biso   1.000  B 
  B48      1.0000 0.55610  0.05610  0.44390  Biso   1.000  B 
  B49      1.0000 0.15360  0.00000  0.84640  Biso   1.000  B 
  B50      1.0000 0.17046  0.00000  0.90471  Biso   1.000  B 
  B51      1.0000 0.09529  0.00000  0.82954  Biso   1.000  B 
  B52      1.0000 0.20500  0.00000  0.79500  Biso   1.000  B 
  B53      1.0000 0.18437  0.00000  0.73249  Biso   1.000  B 
  B54      1.0000 0.13046  0.00000  0.72128  Biso   1.000  B 
  N1       1.0000 0.22015  0.95867  0.62742  Biso   1.000  N 
  B55      1.0000 0.23249  0.00000  0.68442  Biso   1.000  B 
  B56      1.0000 0.29500  0.00000  0.70500  Biso   1.000  B 
  B57      1.0000 0.31558  0.00000  0.76751  Biso   1.000  B 
  B58      1.0000 0.26751  0.00000  0.81563  Biso   1.000  B 
  N2       1.0000 0.28703  0.02883  0.87776  Biso   1.000  N 
  B59      1.0000 0.36949  0.00000  0.77872  Biso   1.000  B 
  B60      1.0000 0.40470  0.00000  0.67046  Biso   1.000  B 
  B61      1.0000 0.34640  0.00000  0.65360  Biso   1.000  B 
  B62      1.0000 0.32954  0.00000  0.59529  Biso   1.000  B 
  C1       1.0000 0.26194  0.89969  0.62570  Biso   1.000  C 
  C2       1.0000 0.37783  0.88506  0.69687  Biso   1.000  C 
  C3       1.0000 0.31224  0.86857  0.67755  Biso   1.000  C 
  H1       1.0000 0.40100  0.84413  0.71872  Biso   1.000  H 
  H2       1.0000 0.38903  0.92007  0.73132  Biso   1.000  H 
  H3       1.0000 0.23235  0.86816  0.60665  Biso   1.000  H 
  H4       1.0000 0.29490  0.90568  0.59174  Biso   1.000  H 
  C4       1.0000 0.33335  0.80535  0.64399  Biso   1.000  C 
  C5       1.0000 0.28022  0.86264  0.74234  Biso   1.000  C 
  C6       1.0000 0.26545  0.09401  0.88787  Biso   1.000  C 
  C7       1.0000 0.27439  0.20510  0.84356  Biso   1.000  C 
  H5       1.0000 0.26736  0.22711  0.88928  Biso   1.000  H 
  C8       1.0000 0.23077  0.14459  0.83924  Biso   1.000  C 
  H6       1.0000 0.32762  0.19385  0.84278  Biso   1.000  H 
  H7       1.0000 0.30799  0.11636  0.90443  Biso   1.000  H 
  H8       1.0000 0.23259  0.09032  0.92382  Biso   1.000  H 
  C9       1.0000 0.15900  0.15717  0.85909  Biso   1.000  C 
  C10      1.0000 0.21962  0.12797  0.76957  Biso   1.000  C 
  H9       1.0000 0.24226  0.89601  0.74067  Biso   1.000  H 
  H10      1.0000 0.30992  0.87490  0.78415  Biso   1.000  H 
  H11      1.0000 0.25965  0.81652  0.74982  Biso   1.000  H 
  H12      1.0000 0.38414  0.79789  0.62778  Biso   1.000  H 
  H13      1.0000 0.31983  0.76638  0.67211  Biso   1.000  H 
  H14      1.0000 0.30700  0.80095  0.60459  Biso   1.000  H 
  H15      1.0000 0.12853  0.17642  0.82003  Biso   1.000  H 
  H16      1.0000 0.13552  0.11362  0.87569  Biso   1.000  H 
  H17      1.0000 0.15487  0.19145  0.89600  Biso   1.000  H 
  H18      1.0000 0.22669  0.16623  0.73919  Biso   1.000  H 
  H19      1.0000 0.17267  0.10982  0.75461  Biso   1.000  H 
  H20      1.0000 0.25403  0.09746  0.75560  Biso   1.000  H 
  H21      1.0000 0.28502  0.99730  0.91748  Biso   1.000  H 
  H22      1.0000 0.22844  0.98834  0.59119  Biso   1.000  H 
  H23      1.0000 0.26289  0.23789  0.80524  Biso   1.000  H 
  H24      1.0000 0.39918  0.89726  0.64932  Biso   1.000  H 
  B63      1.0000 0.15360  0.50000  0.34640  Biso   1.000  B 
  B64      1.0000 0.17046  0.50000  0.40471  Biso   1.000  B 
  B65      1.0000 0.09529  0.50000  0.32954  Biso   1.000  B 
  B66      1.0000 0.20500  0.50000  0.29500  Biso   1.000  B 
  B67      1.0000 0.18437  0.50000  0.23249  Biso   1.000  B 
  B68      1.0000 0.13046  0.50000  0.22128  Biso   1.000  B 
  N3       1.0000 0.22048  0.45724  0.12922  Biso   1.000  N 
  B69      1.0000 0.23249  0.50000  0.18442  Biso   1.000  B 
  B70      1.0000 0.29500  0.50000  0.20500  Biso   1.000  B 
  B71      1.0000 0.31558  0.50000  0.26751  Biso   1.000  B 
  B72      1.0000 0.26751  0.50000  0.31563  Biso   1.000  B 
  N4       1.0000 0.28625  0.52608  0.37848  Biso   1.000  N 
  B73      1.0000 0.36949  0.50000  0.27872  Biso   1.000  B 
  B74      1.0000 0.40470  0.50000  0.17046  Biso   1.000  B 
  B75      1.0000 0.34640  0.50000  0.15360  Biso   1.000  B 
  B76      1.0000 0.32954  0.50000  0.09529  Biso   1.000  B 
  C11      1.0000 0.26543  0.40120  0.12795  Biso   1.000  C 
  C12      1.0000 0.38176  0.38591  0.20561  Biso   1.000  C 
  C13      1.0000 0.31683  0.36786  0.18547  Biso   1.000  C 
  H25      1.0000 0.40346  0.34773  0.22897  Biso   1.000  H 
  H26      1.0000 0.39210  0.42152  0.23895  Biso   1.000  H 
  H27      1.0000 0.23791  0.36838  0.10510  Biso   1.000  H 
  H28      1.0000 0.30057  0.40599  0.09523  Biso   1.000  H 
  C14      1.0000 0.33645  0.30291  0.15513  Biso   1.000  C 
  C15      1.0000 0.28907  0.36597  0.25038  Biso   1.000  C 
  C16      1.0000 0.26489  0.59307  0.38933  Biso   1.000  C 
  C17      1.0000 0.26344  0.70927  0.35268  Biso   1.000  C 
  H29      1.0000 0.31507  0.70375  0.36492  Biso   1.000  H 
  C18      1.0000 0.22637  0.64332  0.34221  Biso   1.000  C 
  H30      1.0000 0.26181  0.73334  0.30707  Biso   1.000  H 
  H31      1.0000 0.30809  0.61467  0.40360  Biso   1.000  H 
  H32      1.0000 0.23559  0.59157  0.42626  Biso   1.000  H 
  C19      1.0000 0.15351  0.65525  0.35976  Biso   1.000  C 
  C20      1.0000 0.22048  0.62987  0.26952  Biso   1.000  C 
  H33      1.0000 0.31457  0.37941  0.29521  Biso   1.000  H 
  H34      1.0000 0.26767  0.32302  0.25873  Biso   1.000  H 
  H35      1.0000 0.25000  0.39754  0.24549  Biso   1.000  H 
  H36      1.0000 0.38665  0.28618  0.15208  Biso   1.000  H 
  H37      1.0000 0.30723  0.26713  0.17764  Biso   1.000  H 
  H38      1.0000 0.32466  0.30547  0.10862  Biso   1.000  H 
  H39      1.0000 0.11939  0.65679  0.31882  Biso   1.000  H 
  H40      1.0000 0.13798  0.61141  0.38577  Biso   1.000  H 
  H41      1.0000 0.14523  0.69838  0.38771  Biso   1.000  H 
  H42      1.0000 0.23110  0.66925  0.24245  Biso   1.000  H 
  H43      1.0000 0.17516  0.61213  0.25078  Biso   1.000  H 
  H44      1.0000 0.25680  0.59848  0.26107  Biso   1.000  H 
  H45      1.0000 0.27752  0.49385  0.41616  Biso   1.000  H 
  H46      1.0000 0.21921  0.48375  0.08620  Biso   1.000  H 
  H47      1.0000 0.24432  0.74236  0.38711  Biso   1.000  H 
  H48      1.0000 0.39951  0.39545  0.15598  Biso   1.000  H 
  B77      1.0000 0.65360  0.00000  0.34640  Biso   1.000  B 
  B78      1.0000 0.67046  0.00000  0.40471  Biso   1.000  B 
  B79      1.0000 0.59529  0.00000  0.32954  Biso   1.000  B 
  B80      1.0000 0.70500  0.00000  0.29500  Biso   1.000  B 
  B81      1.0000 0.68437  0.00000  0.23249  Biso   1.000  B 
  B82      1.0000 0.63046  0.00000  0.22128  Biso   1.000  B 
  N5       1.0000 0.71431  0.97381  0.12096  Biso   1.000  N 
  B83      1.0000 0.73248  0.00000  0.18442  Biso   1.000  B 
  B84      1.0000 0.79499  0.00000  0.20500  Biso   1.000  B 
  B85      1.0000 0.81558  0.00000  0.26751  Biso   1.000  B 
  B86      1.0000 0.76751  0.00000  0.31563  Biso   1.000  B 
  N6       1.0000 0.78989  0.01887  0.38057  Biso   1.000  N 
  B87      1.0000 0.86949  0.00000  0.27872  Biso   1.000  B 
  B88      1.0000 0.90470  0.00000  0.17046  Biso   1.000  B 
  B89      1.0000 0.84639  0.00000  0.15360  Biso   1.000  B 
  B90      1.0000 0.82953  0.00000  0.09529  Biso   1.000  B 
  C21      1.0000 0.73463  0.90566  0.11346  Biso   1.000  C 
  C22      1.0000 0.84573  0.84585  0.14122  Biso   1.000  C 
  C23      1.0000 0.77119  0.85399  0.15875  Biso   1.000  C 
  H49      1.0000 0.85377  0.81274  0.10579  Biso   1.000  H 
  H50      1.0000 0.87617  0.82926  0.18036  Biso   1.000  H 
  H51      1.0000 0.68952  0.88369  0.09943  Biso   1.000  H 
  H52      1.0000 0.76398  0.90868  0.07421  Biso   1.000  H 
  C24      1.0000 0.73379  0.78996  0.15109  Biso   1.000  C 
  C25      1.0000 0.77721  0.86815  0.22958  Biso   1.000  C 
  C26      1.0000 0.77524  0.08694  0.38910  Biso   1.000  C 
  C27      1.0000 0.79404  0.19617  0.34717  Biso   1.000  C 
  H53      1.0000 0.78281  0.21374  0.39130  Biso   1.000  H 
  C28      1.0000 0.75647  0.13496  0.33296  Biso   1.000  C 
  H54      1.0000 0.84410  0.18455  0.34404  Biso   1.000  H 
  H55      1.0000 0.81476  0.09615  0.41429  Biso   1.000  H 
  H56      1.0000 0.73712  0.08762  0.42259  Biso   1.000  H 
  C29      1.0000 0.68462  0.14829  0.34229  Biso   1.000  C 
  C30      1.0000 0.77478  0.12764  0.26215  Biso   1.000  C 
  H57      1.0000 0.82509  0.88429  0.24963  Biso   1.000  H 
  H58      1.0000 0.76749  0.82936  0.25649  Biso   1.000  H 
  H59      1.0000 0.74232  0.90033  0.24045  Biso   1.000  H 
  H60      1.0000 0.74344  0.75312  0.18622  Biso   1.000  H 
  H61      1.0000 0.68144  0.79676  0.14773  Biso   1.000  H 
  H62      1.0000 0.74780  0.77017  0.10757  Biso   1.000  H 
  H63      1.0000 0.65673  0.15242  0.29805  Biso   1.000  H 
  H64      1.0000 0.66115  0.10971  0.36752  Biso   1.000  H 
  H65      1.0000 0.67615  0.18870  0.37294  Biso   1.000  H 
  H66      1.0000 0.77334  0.17388  0.23888  Biso   1.000  H 
  H67      1.0000 0.74093  0.10240  0.23428  Biso   1.000  H 
  H68      1.0000 0.82561  0.11120  0.25923  Biso   1.000  H 
  H69      1.0000 0.77432  0.99003  0.41929  Biso   1.000  H 
  H70      1.0000 0.72153  0.00444  0.08201  Biso   1.000  H 
  H71      1.0000 0.79028  0.23437  0.31407  Biso   1.000  H 
  H72      1.0000 0.86830  0.89070  0.12481  Biso   1.000  H 
  B91      1.0000 0.65360  0.50000  0.84640  Biso   1.000  B 
  B92      1.0000 0.67046  0.50000  0.90471  Biso   1.000  B 
  B93      1.0000 0.59529  0.50000  0.82954  Biso   1.000  B 
  B94      1.0000 0.70500  0.50000  0.79500  Biso   1.000  B 
  B95      1.0000 0.68437  0.50000  0.73249  Biso   1.000  B 
  B96      1.0000 0.63046  0.50000  0.72128  Biso   1.000  B 
  N7       1.0000 0.71284  0.49399  0.61733  Biso   1.000  N 
  B97      1.0000 0.73248  0.50000  0.68442  Biso   1.000  B 
  B98      1.0000 0.79499  0.50000  0.70500  Biso   1.000  B 
  B99      1.0000 0.81558  0.50000  0.76751  Biso   1.000  B 
  B100     1.0000 0.76751  0.50000  0.81563  Biso   1.000  B 
  N8       1.0000 0.77994  0.54543  0.87194  Biso   1.000  N 
  B101     1.0000 0.86949  0.50000  0.77872  Biso   1.000  B 
  B102     1.0000 0.90470  0.50000  0.67046  Biso   1.000  B 
  B103     1.0000 0.84639  0.50000  0.65360  Biso   1.000  B 
  B104     1.0000 0.82953  0.50000  0.59529  Biso   1.000  B 
  C31      1.0000 0.72211  0.42474  0.60458  Biso   1.000  C 
  C32      1.0000 0.82386  0.34987  0.63512  Biso   1.000  C 
  C33      1.0000 0.75331  0.36810  0.65288  Biso   1.000  C 
  H73      1.0000 0.82490  0.31054  0.60516  Biso   1.000  H 
  H74      1.0000 0.85902  0.33411  0.67388  Biso   1.000  H 
  H75      1.0000 0.67568  0.40906  0.58668  Biso   1.000  H 
  H76      1.0000 0.75122  0.42845  0.56516  Biso   1.000  H 
  C34      1.0000 0.70309  0.31301  0.64874  Biso   1.000  C 
  C35      1.0000 0.76704  0.37306  0.72613  Biso   1.000  C 
  C36      1.0000 0.73206  0.60010  0.87263  Biso   1.000  C 
  C37      1.0000 0.66258  0.69607  0.84484  Biso   1.000  C 
  H77      1.0000 0.67571  0.69552  0.89338  Biso   1.000  H 
  C38      1.0000 0.68697  0.63191  0.81154  Biso   1.000  C 
  H78      1.0000 0.68580  0.73264  0.82331  Biso   1.000  H 
  H79      1.0000 0.76003  0.63423  0.89526  Biso   1.000  H 
  H80      1.0000 0.69712  0.59441  0.90545  Biso   1.000  H 
  C39      1.0000 0.62132  0.61365  0.79244  Biso   1.000  C 
  C40      1.0000 0.72116  0.63391  0.74568  Biso   1.000  C 
  H81      1.0000 0.81300  0.39330  0.74276  Biso   1.000  H 
  H82      1.0000 0.76663  0.32746  0.74795  Biso   1.000  H 
  H83      1.0000 0.72878  0.39781  0.74418  Biso   1.000  H 
  H84      1.0000 0.71002  0.27576  0.68487  Biso   1.000  H 
  H85      1.0000 0.65456  0.33429  0.65404  Biso   1.000  H 
  H86      1.0000 0.70644  0.28580  0.60647  Biso   1.000  H 
  H87      1.0000 0.60816  0.57953  0.75826  Biso   1.000  H 
  H88      1.0000 0.60117  0.60423  0.84004  Biso   1.000  H 
  H89      1.0000 0.59964  0.65358  0.76931  Biso   1.000  H 
  H90      1.0000 0.74353  0.67776  0.74362  Biso   1.000  H 
  H91      1.0000 0.68818  0.62863  0.70259  Biso   1.000  H 
  H92      1.0000 0.75948  0.60202  0.74055  Biso   1.000  H 
  H93      1.0000 0.78264  0.51802  0.91437  Biso   1.000  H 
  H94      1.0000 0.72226  0.52882  0.58071  Biso   1.000  H 
  H95      1.0000 0.61167  0.71188  0.84810  Biso   1.000  H 
  H96      1.0000 0.84830  0.38977  0.61163  Biso   1.000  H 
  B105     1.0000 0.84640  0.00000  0.84640  Biso   1.000  B 
  B106     1.0000 0.82954  0.00000  0.90471  Biso   1.000  B 
  B107     1.0000 0.90471  0.00000  0.82954  Biso   1.000  B 
  B108     1.0000 0.79500  0.00000  0.79500  Biso   1.000  B 
  B109     1.0000 0.81563  0.00000  0.73249  Biso   1.000  B 
  B110     1.0000 0.86954  0.00000  0.72128  Biso   1.000  B 
  N9       1.0000 0.78380  0.01257  0.62033  Biso   1.000  N 
  B111     1.0000 0.76752  0.00000  0.68442  Biso   1.000  B 
  B112     1.0000 0.70501  0.00000  0.70500  Biso   1.000  B 
  B113     1.0000 0.68442  0.00000  0.76751  Biso   1.000  B 
  B114     1.0000 0.73249  0.00000  0.81563  Biso   1.000  B 
  N10      1.0000 0.71274  0.99854  0.88291  Biso   1.000  N 
  B115     1.0000 0.63051  0.00000  0.77872  Biso   1.000  B 
  B116     1.0000 0.59530  0.00000  0.67046  Biso   1.000  B 
  B117     1.0000 0.65361  0.00000  0.65360  Biso   1.000  B 
  B118     1.0000 0.67047  0.00000  0.59529  Biso   1.000  B 
  C41      1.0000 0.80383  0.07752  0.62125  Biso   1.000  C 
  C42      1.0000 0.69717  0.14305  0.62515  Biso   1.000  C 
  C43      1.0000 0.76339  0.13774  0.65138  Biso   1.000  C 
  H97      1.0000 0.67430  0.19064  0.61837  Biso   1.000  H 
  H98      1.0000 0.65992  0.11158  0.63949  Biso   1.000  H 
  H99      1.0000 0.85680  0.08499  0.63427  Biso   1.000  H 
  H100     1.0000 0.79861  0.07994  0.57115  Biso   1.000  H 
  C44      1.0000 0.80529  0.19919  0.63743  Biso   1.000  C 
  C45      1.0000 0.75388  0.14238  0.71979  Biso   1.000  C 
  C46      1.0000 0.67202  0.94403  0.88555  Biso   1.000  C 
  C47      1.0000 0.66197  0.83261  0.87514  Biso   1.000  C 
  H101     1.0000 0.62733  0.84648  0.90757  Biso   1.000  H 
  C48      1.0000 0.70910  0.88480  0.85830  Biso   1.000  C 
  H102     1.0000 0.63642  0.81832  0.83277  Biso   1.000  H 
  H103     1.0000 0.62667  0.94901  0.85779  Biso   1.000  H 
  H104     1.0000 0.65696  0.93922  0.93712  Biso   1.000  H 
  C49      1.0000 0.76913  0.88342  0.89156  Biso   1.000  C 
  C50      1.0000 0.74254  0.86880  0.79178  Biso   1.000  C 
  H105     1.0000 0.73629  0.18773  0.73296  Biso   1.000  H 
  H106     1.0000 0.73091  0.10544  0.74433  Biso   1.000  H 
  H107     1.0000 0.79615  0.14366  0.73128  Biso   1.000  H 
  H108     1.0000 0.78504  0.22072  0.59852  Biso   1.000  H 
  H109     1.0000 0.79956  0.23742  0.67087  Biso   1.000  H 
  H110     1.0000 0.85783  0.19188  0.63841  Biso   1.000  H 
  H111     1.0000 0.76298  0.91202  0.93123  Biso   1.000  H 
  H112     1.0000 0.77553  0.83637  0.90195  Biso   1.000  H 
  H113     1.0000 0.81609  0.89697  0.87241  Biso   1.000  H 
  H114     1.0000 0.79586  0.86196  0.78452  Biso   1.000  H 
  H115     1.0000 0.73223  0.90214  0.75962  Biso   1.000  H 
  H116     1.0000 0.72258  0.82569  0.77664  Biso   1.000  H 
  H117     1.0000 0.71891  0.03313  0.91949  Biso   1.000  H 
  H118     1.0000 0.81016  0.97969  0.59323  Biso   1.000  H 
  H119     1.0000 0.68616  0.79578  0.89332  Biso   1.000  H 
  H120     1.0000 0.71141  0.12573  0.58464  Biso   1.000  H 
  B119     1.0000 0.84640  0.50000  0.34640  Biso   1.000  B 
  B120     1.0000 0.82954  0.50000  0.40471  Biso   1.000  B 
  B121     1.0000 0.90471  0.50000  0.32954  Biso   1.000  B 
  B122     1.0000 0.79500  0.50000  0.29500  Biso   1.000  B 
  B123     1.0000 0.81563  0.50000  0.23249  Biso   1.000  B 
  B124     1.0000 0.86954  0.50000  0.22128  Biso   1.000  B 
  N11      1.0000 0.78661  0.49321  0.11511  Biso   1.000  N 
  B125     1.0000 0.76752  0.50000  0.18442  Biso   1.000  B 
  B126     1.0000 0.70501  0.50000  0.20500  Biso   1.000  B 
  B127     1.0000 0.68442  0.50000  0.26751  Biso   1.000  B 
  B128     1.0000 0.73249  0.50000  0.31563  Biso   1.000  B 
  N12      1.0000 0.71938  0.47718  0.38246  Biso   1.000  N 
  B129     1.0000 0.63051  0.50000  0.27872  Biso   1.000  B 
  B130     1.0000 0.59530  0.50000  0.17046  Biso   1.000  B 
  B131     1.0000 0.65361  0.50000  0.15360  Biso   1.000  B 
  B132     1.0000 0.67047  0.50000  0.09529  Biso   1.000  B 
  C51      1.0000 0.83842  0.53668  0.09659  Biso   1.000  C 
  C52      1.0000 0.75849  0.62452  0.11722  Biso   1.000  C 
  C53      1.0000 0.83291  0.61325  0.10865  Biso   1.000  C 
  H121     1.0000 0.73968  0.67281  0.10910  Biso   1.000  H 
  H122     1.0000 0.74826  0.61566  0.16568  Biso   1.000  H 
  H123     1.0000 0.88150  0.51708  0.11949  Biso   1.000  H 
  H124     1.0000 0.83847  0.52666  0.04325  Biso   1.000  H 
  C54      1.0000 0.89994  0.62198  0.07287  Biso   1.000  C 
  C55      1.0000 0.85024  0.67891  0.14698  Biso   1.000  C 
  C56      1.0000 0.68958  0.41531  0.37486  Biso   1.000  C 
  C57      1.0000 0.69296  0.30335  0.34722  Biso   1.000  C 
  H125     1.0000 0.64405  0.31727  0.34057  Biso   1.000  H 
  C58      1.0000 0.73759  0.36176  0.34400  Biso   1.000  C 
  H126     1.0000 0.70174  0.26494  0.31610  Biso   1.000  H 
  H127     1.0000 0.64155  0.42148  0.34997  Biso   1.000  H 
  H128     1.0000 0.67535  0.39875  0.42245  Biso   1.000  H 
  C59      1.0000 0.80092  0.35605  0.37675  Biso   1.000  C 
  C60      1.0000 0.76572  0.36981  0.27865  Biso   1.000  C 
  H129     1.0000 0.84283  0.71428  0.11116  Biso   1.000  H 
  H130     1.0000 0.81711  0.69260  0.18138  Biso   1.000  H 
  H131     1.0000 0.89705  0.69078  0.16364  Biso   1.000  H 
  H132     1.0000 0.92582  0.66638  0.06869  Biso   1.000  H 
  H133     1.0000 0.93451  0.59450  0.09896  Biso   1.000  H 
  H134     1.0000 0.90170  0.60356  0.02454  Biso   1.000  H 
  H135     1.0000 0.78446  0.37761  0.41581  Biso   1.000  H 
  H136     1.0000 0.82054  0.30739  0.38896  Biso   1.000  H 
  H137     1.0000 0.84243  0.38613  0.36339  Biso   1.000  H 
  H138     1.0000 0.81802  0.37819  0.26654  Biso   1.000  H 
  H139     1.0000 0.73927  0.40209  0.25218  Biso   1.000  H 
  H140     1.0000 0.75422  0.32504  0.26012  Biso   1.000  H 
  H141     1.0000 0.68789  0.50421  0.40967  Biso   1.000  H 
  H142     1.0000 0.80122  0.44755  0.10409  Biso   1.000  H 
  H143     1.0000 0.69591  0.28430  0.39394  Biso   1.000  H 
  H144     1.0000 0.72877  0.59209  0.09044  Biso   1.000  H 
  B133     1.0000 0.34640  0.00000  0.34640  Biso   1.000  B 
  B134     1.0000 0.32954  0.00000  0.40471  Biso   1.000  B 
  B135     1.0000 0.40471  0.00000  0.32954  Biso   1.000  B 
  B136     1.0000 0.29500  0.00000  0.29500  Biso   1.000  B 
  B137     1.0000 0.31563  0.00000  0.23249  Biso   1.000  B 
  B138     1.0000 0.36954  0.00000  0.22128  Biso   1.000  B 
  N13      1.0000 0.28737  0.99888  0.11628  Biso   1.000  N 
  B139     1.0000 0.26751  0.00000  0.18442  Biso   1.000  B 
  B140     1.0000 0.20500  0.00000  0.20500  Biso   1.000  B 
  B141     1.0000 0.18442  0.00000  0.26751  Biso   1.000  B 
  B142     1.0000 0.23249  0.00000  0.31563  Biso   1.000  B 
  N14      1.0000 0.21670  0.99826  0.38796  Biso   1.000  N 
  B143     1.0000 0.13051  0.00000  0.27872  Biso   1.000  B 
  B144     1.0000 0.09530  0.00000  0.17046  Biso   1.000  B 
  B145     1.0000 0.15360  0.00000  0.15360  Biso   1.000  B 
  B146     1.0000 0.17046  0.00000  0.09529  Biso   1.000  B 
  C61      1.0000 0.32895  0.05231  0.11245  Biso   1.000  C 
  C62      1.0000 0.22865  0.11798  0.11104  Biso   1.000  C 
  C63      1.0000 0.29463  0.11576  0.14148  Biso   1.000  C 
  H145     1.0000 0.22458  0.16383  0.09804  Biso   1.000  H 
  H146     1.0000 0.18498  0.10690  0.13582  Biso   1.000  H 
  H147     1.0000 0.37363  0.04535  0.13971  Biso   1.000  H 
  H148     1.0000 0.33928  0.05377  0.05829  Biso   1.000  H 
  C64      1.0000 0.34634  0.16446  0.12312  Biso   1.000  C 
  C65      1.0000 0.26763  0.13915  0.20689  Biso   1.000  C 
  C66      1.0000 0.15336  0.00008  0.40715  Biso   1.000  C 
  C67      1.0000 0.12573  0.95457  0.50528  Biso   1.000  C 
  H149     1.0000 0.17188  0.95097  0.52659  Biso   1.000  H 
  C68      1.0000 0.13115  0.93604  0.43087  Biso   1.000  C 
  H150     1.0000 0.10543  0.00280  0.51566  Biso   1.000  H 
  H151     1.0000 0.12290  0.01133  0.36874  Biso   1.000  H 
  H152     1.0000 0.14791  0.03787  0.44178  Biso   1.000  H 
  C69      1.0000 0.17823  0.88851  0.40191  Biso   1.000  C 
  C70      1.0000 0.06167  0.91684  0.40890  Biso   1.000  C 
  H153     1.0000 0.22065  0.15685  0.21009  Biso   1.000  H 
  H154     1.0000 0.26957  0.10207  0.24062  Biso   1.000  H 
  H155     1.0000 0.29465  0.17859  0.21985  Biso   1.000  H 
  H156     1.0000 0.31803  0.20140  0.10905  Biso   1.000  H 
  H157     1.0000 0.38174  0.18209  0.15696  Biso   1.000  H 
  H158     1.0000 0.37067  0.14809  0.08296  Biso   1.000  H 
  H159     1.0000 0.23122  0.89311  0.41233  Biso   1.000  H 
  H160     1.0000 0.16638  0.83619  0.40124  Biso   1.000  H 
  H161     1.0000 0.17702  0.90078  0.35526  Biso   1.000  H 
  H162     1.0000 0.03197  0.90164  0.44844  Biso   1.000  H 
  H163     1.0000 0.06559  0.86993  0.38340  Biso   1.000  H 
  H164     1.0000 0.03587  0.95446  0.38029  Biso   1.000  H 
  H165     1.0000 0.23603  0.03929  0.41014  Biso   1.000  H 
  H166     1.0000 0.27856  0.96154  0.08277  Biso   1.000  H 
  H167     1.0000 0.09138  0.92307  0.52370  Biso   1.000  H 
  H168     1.0000 0.23373  0.08650  0.07212  Biso   1.000  H 
  B147     1.0000 0.34640  0.50000  0.84640  Biso   1.000  B 
  B148     1.0000 0.32954  0.50000  0.90471  Biso   1.000  B 
  B149     1.0000 0.40471  0.50000  0.82954  Biso   1.000  B 
  B150     1.0000 0.29500  0.50000  0.79500  Biso   1.000  B 
  B151     1.0000 0.31563  0.50000  0.73249  Biso   1.000  B 
  B152     1.0000 0.36954  0.50000  0.72128  Biso   1.000  B 
  N15      1.0000 0.28659  0.49825  0.61736  Biso   1.000  N 
  B153     1.0000 0.26751  0.50000  0.68442  Biso   1.000  B 
  B154     1.0000 0.20500  0.50000  0.70500  Biso   1.000  B 
  B155     1.0000 0.18442  0.50000  0.76751  Biso   1.000  B 
  B156     1.0000 0.23249  0.50000  0.81563  Biso   1.000  B 
  N16      1.0000 0.21463  0.48444  0.88343  Biso   1.000  N 
  B157     1.0000 0.13051  0.50000  0.77872  Biso   1.000  B 
  B158     1.0000 0.09530  0.50000  0.67046  Biso   1.000  B 
  B159     1.0000 0.15360  0.50000  0.65360  Biso   1.000  B 
  B160     1.0000 0.17046  0.50000  0.59529  Biso   1.000  B 
  C71      1.0000 0.33021  0.55114  0.61400  Biso   1.000  C 
  C72      1.0000 0.23058  0.60960  0.60636  Biso   1.000  C 
  C73      1.0000 0.29263  0.61351  0.63577  Biso   1.000  C 
  H169     1.0000 0.22298  0.65531  0.59454  Biso   1.000  H 
  H170     1.0000 0.18263  0.60075  0.62622  Biso   1.000  H 
  H171     1.0000 0.37634  0.54126  0.63867  Biso   1.000  H 
  H172     1.0000 0.34252  0.54961  0.56239  Biso   1.000  H 
  C74      1.0000 0.34193  0.66166  0.61829  Biso   1.000  C 
  C75      1.0000 0.26500  0.63195  0.70030  Biso   1.000  C 
  C76      1.0000 0.17278  0.43017  0.88736  Biso   1.000  C 
  C77      1.0000 0.15797  0.31827  0.87620  Biso   1.000  C 
  H173     1.0000 0.12344  0.33252  0.91121  Biso   1.000  H 
  C78      1.0000 0.20891  0.36951  0.86174  Biso   1.000  C 
  H174     1.0000 0.12823  0.30232  0.83624  Biso   1.000  H 
  H175     1.0000 0.12711  0.43753  0.86037  Biso   1.000  H 
  H176     1.0000 0.15614  0.42642  0.93877  Biso   1.000  H 
  C79      1.0000 0.27793  0.36889  0.88579  Biso   1.000  C 
  C80      1.0000 0.23338  0.35938  0.79681  Biso   1.000  C 
  H177     1.0000 0.21626  0.64742  0.70312  Biso   1.000  H 
  H178     1.0000 0.26460  0.59852  0.73600  Biso   1.000  H 
  H179     1.0000 0.28955  0.67222  0.71527  Biso   1.000  H 
  H180     1.0000 0.31104  0.70131  0.60744  Biso   1.000  H 
  H181     1.0000 0.37778  0.67865  0.65295  Biso   1.000  H 
  H182     1.0000 0.36387  0.64852  0.57694  Biso   1.000  H 
  H183     1.0000 0.27131  0.39757  0.92343  Biso   1.000  H 
  H184     1.0000 0.29522  0.32055  0.89556  Biso   1.000  H 
  H185     1.0000 0.31877  0.39087  0.86106  Biso   1.000  H 
  H186     1.0000 0.27512  0.33197  0.78639  Biso   1.000  H 
  H187     1.0000 0.23840  0.39932  0.76933  Biso   1.000  H 
  H188     1.0000 0.20164  0.33273  0.77754  Biso   1.000  H 
  H189     1.0000 0.22541  0.50915  0.92718  Biso   1.000  H 
  H190     1.0000 0.27854  0.46446  0.58048  Biso   1.000  H 
  H191     1.0000 0.18592  0.27882  0.88765  Biso   1.000  H 
  H192     1.0000 0.23692  0.57861  0.56746  Biso   1.000  H 
  B161     1.0000 0.84640  0.15360  0.00000  Biso   1.000  B 
  B162     1.0000 0.90471  0.17046  0.00000  Biso   1.000  B 
  B163     1.0000 0.82954  0.09529  0.00000  Biso   1.000  B 
  B164     1.0000 0.79500  0.20500  0.00000  Biso   1.000  B 
  B165     1.0000 0.73249  0.18437  0.00000  Biso   1.000  B 
  B166     1.0000 0.72128  0.13046  0.00000  Biso   1.000  B 
  N17      1.0000 0.62878  0.22225  0.95524  Biso   1.000  N 
  B167     1.0000 0.68442  0.23249  0.00000  Biso   1.000  B 
  B168     1.0000 0.70500  0.29500  0.00000  Biso   1.000  B 
  B169     1.0000 0.76751  0.31558  0.00000  Biso   1.000  B 
  B170     1.0000 0.81563  0.26751  0.00000  Biso   1.000  B 
  N18      1.0000 0.88123  0.28275  0.02266  Biso   1.000  N 
  B171     1.0000 0.77872  0.36949  0.00000  Biso   1.000  B 
  B172     1.0000 0.67046  0.40470  0.00000  Biso   1.000  B 
  B173     1.0000 0.65360  0.34640  0.00000  Biso   1.000  B 
  B174     1.0000 0.59529  0.32954  0.00000  Biso   1.000  B 
  C81      1.0000 0.62622  0.26529  0.89612  Biso   1.000  C 
  C82      1.0000 0.70153  0.37944  0.88233  Biso   1.000  C 
  C83      1.0000 0.67984  0.31375  0.86028  Biso   1.000  C 
  H193     1.0000 0.72502  0.40164  0.84323  Biso   1.000  H 
  H194     1.0000 0.73653  0.38865  0.91911  Biso   1.000  H 
  H195     1.0000 0.60051  0.23485  0.86944  Biso   1.000  H 
  H196     1.0000 0.59592  0.30017  0.90677  Biso   1.000  H 
  C84      1.0000 0.64425  0.33673  0.79755  Biso   1.000  C 
  C85      1.0000 0.74120  0.28032  0.85493  Biso   1.000  C 
  C86      1.0000 0.87624  0.27639  0.09189  Biso   1.000  C 
  C87      1.0000 0.86008  0.24971  0.20884  Biso   1.000  C 
  H197     1.0000 0.88239  0.21341  0.24082  Biso   1.000  H 
  C88      1.0000 0.84249  0.22516  0.13900  Biso   1.000  C 
  H198     1.0000 0.89207  0.29307  0.20448  Biso   1.000  H 
  H199     1.0000 0.86188  0.32549  0.10932  Biso   1.000  H 
  H200     1.0000 0.91929  0.26573  0.09994  Biso   1.000  H 
  C89      1.0000 0.86058  0.15356  0.12955  Biso   1.000  C 
  C90      1.0000 0.77135  0.23035  0.13354  Biso   1.000  C 
  H201     1.0000 0.74280  0.24158  0.89110  Biso   1.000  H 
  H202     1.0000 0.78469  0.31068  0.85903  Biso   1.000  H 
  H203     1.0000 0.73819  0.26084  0.81013  Biso   1.000  H 
  H204     1.0000 0.59975  0.32763  0.80185  Biso   1.000  H 
  H205     1.0000 0.64255  0.38762  0.78543  Biso   1.000  H 
  H206     1.0000 0.65914  0.31291  0.75702  Biso   1.000  H 
  H207     1.0000 0.82224  0.12109  0.11059  Biso   1.000  H 
  H208     1.0000 0.90053  0.14602  0.10076  Biso   1.000  H 
  H209     1.0000 0.87197  0.13277  0.17626  Biso   1.000  H 
  H210     1.0000 0.75001  0.24319  0.17586  Biso   1.000  H 
  H211     1.0000 0.74770  0.18542  0.11996  Biso   1.000  H 
  H212     1.0000 0.75819  0.26527  0.10115  Biso   1.000  H 
  H213     1.0000 0.91076  0.30812  0.99255  Biso   1.000  H 
  H214     1.0000 0.59162  0.23278  0.98342  Biso   1.000  H 
  H215     1.0000 0.82206  0.27021  0.23334  Biso   1.000  H 
  H216     1.0000 0.65239  0.39846  0.89228  Biso   1.000  H 
  B175     1.0000 0.84640  0.65360  0.50000  Biso   1.000  B 
  B176     1.0000 0.90471  0.67046  0.50000  Biso   1.000  B 
  B177     1.0000 0.82954  0.59529  0.50000  Biso   1.000  B 
  B178     1.0000 0.79500  0.70500  0.50000  Biso   1.000  B 
  B179     1.0000 0.73249  0.68437  0.50000  Biso   1.000  B 
  B180     1.0000 0.72128  0.63046  0.50000  Biso   1.000  B 
  N19      1.0000 0.62513  0.72314  0.45710  Biso   1.000  N 
  B181     1.0000 0.68442  0.73248  0.50000  Biso   1.000  B 
  B182     1.0000 0.70500  0.79499  0.50000  Biso   1.000  B 
  B183     1.0000 0.76751  0.81558  0.50000  Biso   1.000  B 
  B184     1.0000 0.81563  0.76751  0.50000  Biso   1.000  B 
  N20      1.0000 0.87942  0.78699  0.52420  Biso   1.000  N 
  B185     1.0000 0.77872  0.86949  0.50000  Biso   1.000  B 
  B186     1.0000 0.67046  0.90470  0.50000  Biso   1.000  B 
  B187     1.0000 0.65360  0.84639  0.50000  Biso   1.000  B 
  B188     1.0000 0.59529  0.82953  0.50000  Biso   1.000  B 
  C91      1.0000 0.62768  0.76227  0.39482  Biso   1.000  C 
  C92      1.0000 0.69803  0.87657  0.38095  Biso   1.000  C 
  C93      1.0000 0.68029  0.81007  0.35937  Biso   1.000  C 
  H217     1.0000 0.72658  0.89772  0.34338  Biso   1.000  H 
  H218     1.0000 0.73070  0.88335  0.41867  Biso   1.000  H 
  H219     1.0000 0.60524  0.73314  0.36163  Biso   1.000  H 
  H220     1.0000 0.59592  0.80010  0.40299  Biso   1.000  H 
  C94      1.0000 0.65108  0.83627  0.29163  Biso   1.000  C 
  C95      1.0000 0.74595  0.77799  0.36315  Biso   1.000  C 
  C96      1.0000 0.88011  0.77124  0.59320  Biso   1.000  C 
  C97      1.0000 0.84724  0.76259  0.70628  Biso   1.000  C 
  H221     1.0000 0.89251  0.74718  0.72490  Biso   1.000  H 
  C98      1.0000 0.83865  0.72724  0.63997  Biso   1.000  C 
  H222     1.0000 0.84921  0.81686  0.70488  Biso   1.000  H 
  H223     1.0000 0.87764  0.82231  0.61057  Biso   1.000  H 
  H224     1.0000 0.92304  0.74605  0.59611  Biso   1.000  H 
  C99      1.0000 0.86111  0.65704  0.64646  Biso   1.000  C 
  C100     1.0000 0.76756  0.72627  0.62818  Biso   1.000  C 
  H225     1.0000 0.74606  0.73784  0.39630  Biso   1.000  H 
  H226     1.0000 0.78871  0.80817  0.37744  Biso   1.000  H 
  H227     1.0000 0.75587  0.75953  0.32141  Biso   1.000  H 
  H228     1.0000 0.64769  0.88672  0.27889  Biso   1.000  H 
  H229     1.0000 0.67334  0.81417  0.25124  Biso   1.000  H 
  H230     1.0000 0.60512  0.82177  0.29025  Biso   1.000  H 
  H231     1.0000 0.81982  0.62320  0.64588  Biso   1.000  H 
  H232     1.0000 0.89179  0.64297  0.60800  Biso   1.000  H 
  H233     1.0000 0.88561  0.64720  0.69034  Biso   1.000  H 
  H234     1.0000 0.74453  0.73625  0.66785  Biso   1.000  H 
  H235     1.0000 0.74569  0.68063  0.61261  Biso   1.000  H 
  H236     1.0000 0.75604  0.76337  0.59786  Biso   1.000  H 
  H237     1.0000 0.91929  0.77818  0.49433  Biso   1.000  H 
  H238     1.0000 0.62484  0.67304  0.44842  Biso   1.000  H 
  H239     1.0000 0.81187  0.74769  0.73847  Biso   1.000  H 
  H240     1.0000 0.65178  0.89822  0.39026  Biso   1.000  H 
  B189     1.0000 0.34640  0.15360  0.50000  Biso   1.000  B 
  B190     1.0000 0.40471  0.17046  0.50000  Biso   1.000  B 
  B191     1.0000 0.32954  0.09529  0.50000  Biso   1.000  B 
  B192     1.0000 0.29500  0.20500  0.50000  Biso   1.000  B 
  B193     1.0000 0.23249  0.18437  0.50000  Biso   1.000  B 
  B194     1.0000 0.22128  0.13046  0.50000  Biso   1.000  B 
  N21      1.0000 0.12964  0.21882  0.45877  Biso   1.000  N 
  B195     1.0000 0.18442  0.23249  0.50000  Biso   1.000  B 
  B196     1.0000 0.20500  0.29500  0.50000  Biso   1.000  B 
  B197     1.0000 0.26751  0.31558  0.50000  Biso   1.000  B 
  B198     1.0000 0.31563  0.26751  0.50000  Biso   1.000  B 
  N22      1.0000 0.37154  0.27706  0.54602  Biso   1.000  N 
  B199     1.0000 0.27872  0.36949  0.50000  Biso   1.000  B 
  B200     1.0000 0.17046  0.40470  0.50000  Biso   1.000  B 
  B201     1.0000 0.15360  0.34640  0.50000  Biso   1.000  B 
  B202     1.0000 0.09529  0.32954  0.50000  Biso   1.000  B 
  C101     1.0000 0.12647  0.26723  0.40234  Biso   1.000  C 
  C102     1.0000 0.20037  0.37842  0.38468  Biso   1.000  C 
  C103     1.0000 0.18325  0.31041  0.36595  Biso   1.000  C 
  H241     1.0000 0.22489  0.40249  0.34817  Biso   1.000  H 
  H242     1.0000 0.23505  0.38493  0.41902  Biso   1.000  H 
  H243     1.0000 0.09328  0.23535  0.38454  Biso   1.000  H 
  H244     1.0000 0.09614  0.30521  0.40488  Biso   1.000  H 
  C104     1.0000 0.15337  0.33526  0.30259  Biso   1.000  C 
  C105     1.0000 0.24466  0.27505  0.36181  Biso   1.000  C 
  C106     1.0000 0.37368  0.23354  0.60476  Biso   1.000  C 
  C107     1.0000 0.34700  0.16589  0.70848  Biso   1.000  C 
  H245     1.0000 0.39603  0.16914  0.70746  Biso   1.000  H 
  C108     1.0000 0.31794  0.18981  0.64080  Biso   1.000  C 
  H246     1.0000 0.33166  0.19439  0.74476  Biso   1.000  H 
  H247     1.0000 0.39906  0.26422  0.63118  Biso   1.000  H 
  H248     1.0000 0.40340  0.19588  0.59718  Biso   1.000  H 
  C109     1.0000 0.30051  0.12618  0.61756  Biso   1.000  C 
  C110     1.0000 0.25557  0.22324  0.64038  Biso   1.000  C 
  H249     1.0000 0.28800  0.30550  0.36235  Biso   1.000  H 
  H250     1.0000 0.23943  0.25312  0.31800  Biso   1.000  H 
  H251     1.0000 0.24814  0.24315  0.39834  Biso   1.000  H 
  H252     1.0000 0.16291  0.38273  0.28092  Biso   1.000  H 
  H253     1.0000 0.17056  0.30535  0.26710  Biso   1.000  H 
  H254     1.0000 0.10386  0.33549  0.30347  Biso   1.000  H 
  H255     1.0000 0.26948  0.11688  0.57995  Biso   1.000  H 
  H256     1.0000 0.34713  0.10453  0.60899  Biso   1.000  H 
  H257     1.0000 0.27342  0.10275  0.65489  Biso   1.000  H 
  H258     1.0000 0.25131  0.23913  0.68776  Biso   1.000  H 
  H259     1.0000 0.21194  0.19531  0.62820  Biso   1.000  H 
  H260     1.0000 0.25930  0.26430  0.60806  Biso   1.000  H 
  H261     1.0000 0.40975  0.26882  0.51461  Biso   1.000  H 
  H262     1.0000 0.09243  0.22373  0.49067  Biso   1.000  H 
  H263     1.0000 0.34192  0.11604  0.72507  Biso   1.000  H 
  H264     1.0000 0.15198  0.39810  0.39643  Biso   1.000  H 
  B203     1.0000 0.34640  0.65360  0.00000  Biso   1.000  B 
  B204     1.0000 0.40471  0.67046  0.00000  Biso   1.000  B 
  B205     1.0000 0.32954  0.59529  0.00000  Biso   1.000  B 
  B206     1.0000 0.29500  0.70500  0.00000  Biso   1.000  B 
  B207     1.0000 0.23249  0.68437  0.00000  Biso   1.000  B 
  B208     1.0000 0.22128  0.63046  0.00000  Biso   1.000  B 
  N23      1.0000 0.12886  0.72010  0.95534  Biso   1.000  N 
  B209     1.0000 0.18442  0.73248  0.00000  Biso   1.000  B 
  B210     1.0000 0.20500  0.79499  0.00000  Biso   1.000  B 
  B211     1.0000 0.26751  0.81558  0.00000  Biso   1.000  B 
  B212     1.0000 0.31563  0.76751  0.00000  Biso   1.000  B 
  N24      1.0000 0.36341  0.77745  0.05457  Biso   1.000  N 
  B213     1.0000 0.27872  0.86949  0.00000  Biso   1.000  B 
  B214     1.0000 0.17046  0.90470  0.00000  Biso   1.000  B 
  B215     1.0000 0.15360  0.84639  0.00000  Biso   1.000  B 
  B216     1.0000 0.09529  0.82953  0.00000  Biso   1.000  B 
  C111     1.0000 0.12562  0.77184  0.90276  Biso   1.000  C 
  C112     1.0000 0.20098  0.87767  0.88082  Biso   1.000  C 
  C113     1.0000 0.18458  0.81006  0.86507  Biso   1.000  C 
  H265     1.0000 0.22537  0.89877  0.84175  Biso   1.000  H 
  H266     1.0000 0.23243  0.89121  0.91766  Biso   1.000  H 
  H267     1.0000 0.09307  0.74957  0.87558  Biso   1.000  H 
  H268     1.0000 0.09889  0.81221  0.90602  Biso   1.000  H 
  C114     1.0000 0.15441  0.82276  0.80041  Biso   1.000  C 
  C115     1.0000 0.24702  0.77672  0.86204  Biso   1.000  C 
  C116     1.0000 0.36249  0.72980  0.11015  Biso   1.000  C 
  C117     1.0000 0.34241  0.66438  0.20982  Biso   1.000  C 
  H269     1.0000 0.39230  0.67336  0.20347  Biso   1.000  H 
  C118     1.0000 0.30687  0.69050  0.14578  Biso   1.000  C 
  H270     1.0000 0.32773  0.68366  0.25549  Biso   1.000  H 
  H271     1.0000 0.38461  0.75996  0.14388  Biso   1.000  H 
  H272     1.0000 0.39620  0.69073  0.10375  Biso   1.000  H 
  C119     1.0000 0.29063  0.62578  0.12018  Biso   1.000  C 
  C120     1.0000 0.24125  0.72628  0.14291  Biso   1.000  C 
  H273     1.0000 0.29159  0.80491  0.86774  Biso   1.000  H 
  H274     1.0000 0.24516  0.75224  0.81926  Biso   1.000  H 
  H275     1.0000 0.24566  0.74084  0.89724  Biso   1.000  H 
  H276     1.0000 0.16089  0.86779  0.77775  Biso   1.000  H 
  H277     1.0000 0.16923  0.78540  0.76864  Biso   1.000  H 
  H278     1.0000 0.10575  0.81925  0.80287  Biso   1.000  H 
  H279     1.0000 0.25932  0.61909  0.08205  Biso   1.000  H 
  H280     1.0000 0.33763  0.60366  0.10936  Biso   1.000  H 
  H281     1.0000 0.26378  0.60170  0.15635  Biso   1.000  H 
  H282     1.0000 0.23499  0.74662  0.18664  Biso   1.000  H 
  H283     1.0000 0.19642  0.69666  0.13204  Biso   1.000  H 
  H284     1.0000 0.24387  0.76613  0.10874  Biso   1.000  H 
  H285     1.0000 0.40549  0.76515  0.03542  Biso   1.000  H 
  H286     1.0000 0.08642  0.71354  0.98220  Biso   1.000  H 
  H287     1.0000 0.34530  0.61235  0.21695  Biso   1.000  H 
  H288     1.0000 0.15206  0.89695  0.88762  Biso   1.000  H 
  B217     1.0000 0.84640  0.84640  0.00000  Biso   1.000  B 
  B218     1.0000 0.90471  0.82954  0.00000  Biso   1.000  B 
  B219     1.0000 0.82954  0.90471  0.00000  Biso   1.000  B 
  B220     1.0000 0.79500  0.79500  0.00000  Biso   1.000  B 
  B221     1.0000 0.73249  0.81563  0.00000  Biso   1.000  B 
  B222     1.0000 0.72128  0.86954  0.00000  Biso   1.000  B 
  N25      1.0000 0.61207  0.78614  0.00182  Biso   1.000  N 
  B223     1.0000 0.68442  0.76752  0.00000  Biso   1.000  B 
  B224     1.0000 0.70500  0.70501  0.00000  Biso   1.000  B 
  B225     1.0000 0.76751  0.68442  0.00000  Biso   1.000  B 
  B226     1.0000 0.81563  0.73249  0.00000  Biso   1.000  B 
  N26      1.0000 0.88224  0.71239  0.98515  Biso   1.000  N 
  B227     1.0000 0.77872  0.63051  0.00000  Biso   1.000  B 
  B228     1.0000 0.67046  0.59530  0.00000  Biso   1.000  B 
  B229     1.0000 0.65360  0.65361  0.00000  Biso   1.000  B 
  B230     1.0000 0.59529  0.67047  0.00000  Biso   1.000  B 
  C121     1.0000 0.59444  0.85170  0.02432  Biso   1.000  C 
  C122     1.0000 0.52581  0.94609  0.04018  Biso   1.000  C 
  C123     1.0000 0.53113  0.88688  0.99825  Biso   1.000  C 
  H289     1.0000 0.47367  0.96093  0.03407  Biso   1.000  H 
  H290     1.0000 0.55696  0.98608  0.02518  Biso   1.000  H 
  H291     1.0000 0.58796  0.84250  0.07635  Biso   1.000  H 
  H292     1.0000 0.63013  0.88812  0.01740  Biso   1.000  H 
  C124     1.0000 0.47392  0.84377  0.00560  Biso   1.000  C 
  C125     1.0000 0.52543  0.91113  0.92830  Biso   1.000  C 
  C126     1.0000 0.88023  0.67034  0.93224  Biso   1.000  C 
  C127     1.0000 0.86982  0.64869  0.82269  Biso   1.000  C 
  H293     1.0000 0.89677  0.60793  0.84234  Biso   1.000  H 
  C128     1.0000 0.85748  0.70456  0.87085  Biso   1.000  C 
  H294     1.0000 0.82951  0.62385  0.80369  Biso   1.000  H 
  H295     1.0000 0.85356  0.62402  0.93915  Biso   1.000  H 
  H296     1.0000 0.93022  0.65694  0.92699  Biso   1.000  H 
  C129     1.0000 0.88767  0.76978  0.86948  Biso   1.000  C 
  C130     1.0000 0.79396  0.73049  0.85636  Biso   1.000  C 
  H297     1.0000 0.47257  0.92191  0.91931  Biso   1.000  H 
  H298     1.0000 0.55339  0.95374  0.91828  Biso   1.000  H 
  H299     1.0000 0.53560  0.87547  0.89334  Biso   1.000  H 
  H300     1.0000 0.42672  0.86889  0.99114  Biso   1.000  H 
  H301     1.0000 0.48230  0.79775  0.97806  Biso   1.000  H 
  H302     1.0000 0.47584  0.83210  0.05554  Biso   1.000  H 
  H303     1.0000 0.92608  0.76595  0.89770  Biso   1.000  H 
  H304     1.0000 0.89453  0.78433  0.81984  Biso   1.000  H 
  H305     1.0000 0.86446  0.80960  0.89053  Biso   1.000  H 
  H306     1.0000 0.78869  0.77331  0.82866  Biso   1.000  H 
  H307     1.0000 0.76607  0.73454  0.89694  Biso   1.000  H 
  H308     1.0000 0.77427  0.69976  0.82618  Biso   1.000  H 
  H309     1.0000 0.92611  0.73259  0.00130  Biso   1.000  H 
  H310     1.0000 0.59025  0.77384  0.95808  Biso   1.000  H 
  H311     1.0000 0.89029  0.66980  0.78308  Biso   1.000  H 
  H312     1.0000 0.53655  0.93211  0.09065  Biso   1.000  H 
  B231     1.0000 0.84640  0.34640  0.50000  Biso   1.000  B 
  B232     1.0000 0.90471  0.32954  0.50000  Biso   1.000  B 
  B233     1.0000 0.82954  0.40471  0.50000  Biso   1.000  B 
  B234     1.0000 0.79500  0.29500  0.50000  Biso   1.000  B 
  B235     1.0000 0.73249  0.31563  0.50000  Biso   1.000  B 
  B236     1.0000 0.72128  0.36954  0.50000  Biso   1.000  B 
  N27      1.0000 0.61392  0.28772  0.51601  Biso   1.000  N 
  B237     1.0000 0.68442  0.26751  0.50000  Biso   1.000  B 
  B238     1.0000 0.70500  0.20500  0.50000  Biso   1.000  B 
  B239     1.0000 0.76751  0.18442  0.50000  Biso   1.000  B 
  B240     1.0000 0.81563  0.23249  0.50000  Biso   1.000  B 
  N28      1.0000 0.88646  0.21819  0.52322  Biso   1.000  N 
  B241     1.0000 0.77872  0.13051  0.50000  Biso   1.000  B 
  B242     1.0000 0.67046  0.09530  0.50000  Biso   1.000  B 
  B243     1.0000 0.65360  0.15360  0.50000  Biso   1.000  B 
  B244     1.0000 0.59529  0.17046  0.50000  Biso   1.000  B 
  C131     1.0000 0.57419  0.31650  0.46699  Biso   1.000  C 
  C132     1.0000 0.56202  0.43233  0.52813  Biso   1.000  C 
  C133     1.0000 0.53418  0.38290  0.48003  Biso   1.000  C 
  H313     1.0000 0.52704  0.46948  0.53418  Biso   1.000  H 
  H314     1.0000 0.61182  0.45214  0.51597  Biso   1.000  H 
  H315     1.0000 0.60119  0.32788  0.42284  Biso   1.000  H 
  H316     1.0000 0.53592  0.27969  0.45775  Biso   1.000  H 
  C134     1.0000 0.46834  0.36425  0.50079  Biso   1.000  C 
  C135     1.0000 0.52255  0.41980  0.41709  Biso   1.000  C 
  C136     1.0000 0.90945  0.15366  0.54202  Biso   1.000  C 
  C137     1.0000 0.01504  0.11983  0.50342  Biso   1.000  C 
  H317     1.0000 0.01964  0.17118  0.50455  Biso   1.000  H 
  C138     1.0000 0.94412  0.11249  0.49018  Biso   1.000  C 
  H318     1.0000 0.02887  0.10163  0.55082  Biso   1.000  H 
  H319     1.0000 0.87277  0.12878  0.55011  Biso   1.000  H 
  H320     1.0000 0.93505  0.15216  0.58724  Biso   1.000  H 
  C139     1.0000 0.92428  0.14056  0.42838  Biso   1.000  C 
  C140     1.0000 0.92800  0.04311  0.47963  Biso   1.000  C 
  H321     1.0000 0.47172  0.44053  0.41001  Biso   1.000  H 
  H322     1.0000 0.55890  0.46003  0.40597  Biso   1.000  H 
  H323     1.0000 0.53068  0.38471  0.38262  Biso   1.000  H 
  H324     1.0000 0.43840  0.40078  0.52363  Biso   1.000  H 
  H325     1.0000 0.44114  0.34440  0.45873  Biso   1.000  H 
  H326     1.0000 0.48041  0.32646  0.53655  Biso   1.000  H 
  H327     1.0000 0.95188  0.18098  0.42868  Biso   1.000  H 
  H328     1.0000 0.92354  0.10995  0.38198  Biso   1.000  H 
  H329     1.0000 0.87799  0.15712  0.43012  Biso   1.000  H 
  H330     1.0000 0.96131  0.01297  0.44466  Biso   1.000  H 
  H331     1.0000 0.87522  0.02945  0.46787  Biso   1.000  H 
  H332     1.0000 0.93364  0.03745  0.52493  Biso   1.000  H 
  H333     1.0000 0.90217  0.24447  0.56458  Biso   1.000  H 
  H334     1.0000 0.61658  0.31779  0.55380  Biso   1.000  H 
  H335     1.0000 0.04997  0.09876  0.46950  Biso   1.000  H 
  H336     1.0000 0.57118  0.40821  0.57415  Biso   1.000  H 
  B245     1.0000 0.34640  0.84640  0.50000  Biso   1.000  B 
  B246     1.0000 0.40471  0.82954  0.50000  Biso   1.000  B 
  B247     1.0000 0.32954  0.90471  0.50000  Biso   1.000  B 
  B248     1.0000 0.29500  0.79500  0.50000  Biso   1.000  B 
  B249     1.0000 0.23249  0.81563  0.50000  Biso   1.000  B 
  B250     1.0000 0.22128  0.86954  0.50000  Biso   1.000  B 
  N29      1.0000 0.11588  0.78715  0.50369  Biso   1.000  N 
  B251     1.0000 0.18442  0.76752  0.50000  Biso   1.000  B 
  B252     1.0000 0.20500  0.70501  0.50000  Biso   1.000  B 
  B253     1.0000 0.26751  0.68442  0.50000  Biso   1.000  B 
  B254     1.0000 0.31563  0.73249  0.50000  Biso   1.000  B 
  N30      1.0000 0.38646  0.71419  0.49676  Biso   1.000  N 
  B255     1.0000 0.27872  0.63051  0.50000  Biso   1.000  B 
  B256     1.0000 0.17046  0.59530  0.50000  Biso   1.000  B 
  B257     1.0000 0.15360  0.65361  0.50000  Biso   1.000  B 
  B258     1.0000 0.09529  0.67047  0.50000  Biso   1.000  B 
  C141     1.0000 0.11683  0.82181  0.56056  Biso   1.000  C 
  C142     1.0000 0.11031  0.72422  0.62206  Biso   1.000  C 
  C143     1.0000 0.13774  0.78738  0.62327  Biso   1.000  C 
  H337     1.0000 0.10341  0.70732  0.67162  Biso   1.000  H 
  H338     1.0000 0.13512  0.68635  0.60184  Biso   1.000  H 
  H339     1.0000 0.14705  0.86188  0.56215  Biso   1.000  H 
  H340     1.0000 0.06745  0.83436  0.56304  Biso   1.000  H 
  C144     1.0000 0.11525  0.83376  0.67034  Biso   1.000  C 
  C145     1.0000 0.20048  0.76679  0.64770  Biso   1.000  C 
  C146     1.0000 0.40533  0.65013  0.47315  Biso   1.000  C 
  C147     1.0000 0.51670  0.67179  0.50635  Biso   1.000  C 
  H341     1.0000 0.52520  0.68654  0.45609  Biso   1.000  H 
  C148     1.0000 0.46830  0.61926  0.50149  Biso   1.000  C 
  H342     1.0000 0.50998  0.71730  0.53478  Biso   1.000  H 
  H343     1.0000 0.40883  0.66069  0.42189  Biso   1.000  H 
  H344     1.0000 0.37001  0.61242  0.47940  Biso   1.000  H 
  C149     1.0000 0.48490  0.56596  0.45296  Biso   1.000  C 
  C150     1.0000 0.47041  0.58543  0.56896  Biso   1.000  C 
  H345     1.0000 0.22105  0.80351  0.66819  Biso   1.000  H 
  H346     1.0000 0.19719  0.73456  0.68697  Biso   1.000  H 
  H347     1.0000 0.22832  0.74924  0.60966  Biso   1.000  H 
  H348     1.0000 0.10356  0.80328  0.70748  Biso   1.000  H 
  H349     1.0000 0.14814  0.87216  0.68268  Biso   1.000  H 
  H350     1.0000 0.07291  0.85547  0.65716  Biso   1.000  H 
  H351     1.0000 0.46244  0.52069  0.46746  Biso   1.000  H 
  H352     1.0000 0.46624  0.57126  0.40412  Biso   1.000  H 
  H353     1.0000 0.53573  0.56349  0.45172  Biso   1.000  H 
  H354     1.0000 0.51978  0.57186  0.58496  Biso   1.000  H 
  H355     1.0000 0.44397  0.53949  0.56901  Biso   1.000  H 
  H356     1.0000 0.45396  0.61350  0.60907  Biso   1.000  H 
  H357     1.0000 0.41195  0.72736  0.53768  Biso   1.000  H 
  H358     1.0000 0.09380  0.80970  0.46633  Biso   1.000  H 
  H359     1.0000 0.56053  0.64908  0.52681  Biso   1.000  H 
  H360     1.0000 0.07245  0.73109  0.59330  Biso   1.000  H 
  B259     1.0000 0.34640  0.34640  0.00000  Biso   1.000  B 
  B260     1.0000 0.40471  0.32954  0.00000  Biso   1.000  B 
  B261     1.0000 0.32954  0.40471  0.00000  Biso   1.000  B 
  B262     1.0000 0.29500  0.29500  0.00000  Biso   1.000  B 
  B263     1.0000 0.23249  0.31563  0.00000  Biso   1.000  B 
  B264     1.0000 0.22128  0.36954  0.00000  Biso   1.000  B 
  N31      1.0000 0.11658  0.28795  0.00937  Biso   1.000  N 
  B265     1.0000 0.18442  0.26751  0.00000  Biso   1.000  B 
  B266     1.0000 0.20500  0.20500  0.00000  Biso   1.000  B 
  B267     1.0000 0.26751  0.18442  0.00000  Biso   1.000  B 
  B268     1.0000 0.31563  0.23249  0.00000  Biso   1.000  B 
  N32      1.0000 0.38704  0.21625  0.99649  Biso   1.000  N 
  B269     1.0000 0.27872  0.13051  0.00000  Biso   1.000  B 
  B270     1.0000 0.17046  0.09530  0.00000  Biso   1.000  B 
  B271     1.0000 0.15360  0.15360  0.00000  Biso   1.000  B 
  B272     1.0000 0.09529  0.17046  0.00000  Biso   1.000  B 
  C151     1.0000 0.11559  0.33037  0.06210  Biso   1.000  C 
  C152     1.0000 0.10929  0.23191  0.11689  Biso   1.000  C 
  C153     1.0000 0.13695  0.29823  0.12485  Biso   1.000  C 
  H361     1.0000 0.09415  0.21436  0.15491  Biso   1.000  H 
  H362     1.0000 0.13764  0.19458  0.10140  Biso   1.000  H 
  H363     1.0000 0.14684  0.36884  0.05598  Biso   1.000  H 
  H364     1.0000 0.06213  0.34163  0.06317  Biso   1.000  H 
  C154     1.0000 0.11455  0.35080  0.16986  Biso   1.000  C 
  C155     1.0000 0.19888  0.27654  0.15061  Biso   1.000  C 
  C156     1.0000 0.40349  0.15365  0.97045  Biso   1.000  C 
  C157     1.0000 0.52163  0.14888  0.99140  Biso   1.000  C 
  H365     1.0000 0.51024  0.18833  0.95842  Biso   1.000  H 
  C158     1.0000 0.46285  0.11352  0.99821  Biso   1.000  C 
  H366     1.0000 0.53821  0.17253  0.03708  Biso   1.000  H 
  H367     1.0000 0.40942  0.16170  0.91649  Biso   1.000  H 
  H368     1.0000 0.36701  0.11827  0.97929  Biso   1.000  H 
  C159     1.0000 0.46265  0.05474  0.95277  Biso   1.000  C 
  C160     1.0000 0.47027  0.08761  0.06658  Biso   1.000  C 
  H369     1.0000 0.19487  0.24128  0.18666  Biso   1.000  H 
  H370     1.0000 0.23027  0.26088  0.11105  Biso   1.000  H 
  H371     1.0000 0.21816  0.31193  0.17750  Biso   1.000  H 
  H372     1.0000 0.10397  0.32019  0.20542  Biso   1.000  H 
  H373     1.0000 0.14874  0.38729  0.18473  Biso   1.000  H 
  H374     1.0000 0.07461  0.37547  0.15505  Biso   1.000  H 
  H375     1.0000 0.44137  0.06198  0.90367  Biso   1.000  H 
  H376     1.0000 0.51094  0.03464  0.94467  Biso   1.000  H 
  H377     1.0000 0.43292  0.01738  0.97011  Biso   1.000  H 
  H378     1.0000 0.43983  0.04558  0.07408  Biso   1.000  H 
  H379     1.0000 0.46372  0.12415  0.10449  Biso   1.000  H 
  H380     1.0000 0.51907  0.06823  0.07621  Biso   1.000  H 
  H381     1.0000 0.41149  0.22498  0.03923  Biso   1.000  H 
  H382     1.0000 0.07510  0.28204  0.98172  Biso   1.000  H 
  H383     1.0000 0.56572  0.12075  0.97302  Biso   1.000  H 
  H384     1.0000 0.07178  0.23464  0.08463  Biso   1.000  H 
  B273     1.0000 0.00000  0.84640  0.15360  Biso   1.000  B 
  B274     1.0000 0.00000  0.90471  0.17046  Biso   1.000  B 
  B275     1.0000 0.00000  0.82954  0.09529  Biso   1.000  B 
  B276     1.0000 0.00000  0.79500  0.20500  Biso   1.000  B 
  B277     1.0000 0.00000  0.73249  0.18437  Biso   1.000  B 
  B278     1.0000 0.00000  0.72128  0.13046  Biso   1.000  B 
  N33      1.0000 0.97407  0.62025  0.21759  Biso   1.000  N 
  B279     1.0000 0.00000  0.68442  0.23249  Biso   1.000  B 
  B280     1.0000 0.00000  0.70500  0.29500  Biso   1.000  B 
  B281     1.0000 0.00000  0.76751  0.31558  Biso   1.000  B 
  B282     1.0000 0.00000  0.81563  0.26751  Biso   1.000  B 
  N34      1.0000 0.02428  0.88138  0.28338  Biso   1.000  N 
  B283     1.0000 0.00000  0.77872  0.36949  Biso   1.000  B 
  B284     1.0000 0.00000  0.67046  0.40470  Biso   1.000  B 
  B285     1.0000 0.00000  0.65360  0.34640  Biso   1.000  B 
  B286     1.0000 0.00000  0.59529  0.32954  Biso   1.000  B 
  C161     1.0000 0.91017  0.61595  0.25039  Biso   1.000  C 
  C162     1.0000 0.87718  0.66781  0.36617  Biso   1.000  C 
  C163     1.0000 0.86650  0.66905  0.29047  Biso   1.000  C 
  H385     1.0000 0.83269  0.68032  0.38941  Biso   1.000  H 
  H386     1.0000 0.90478  0.70841  0.38574  Biso   1.000  H 
  H387     1.0000 0.88358  0.59609  0.21215  Biso   1.000  H 
  H388     1.0000 0.91152  0.58204  0.28158  Biso   1.000  H 
  C164     1.0000 0.79727  0.64918  0.28392  Biso   1.000  C 
  C165     1.0000 0.87015  0.74493  0.27719  Biso   1.000  C 
  C166     1.0000 0.08999  0.88988  0.26049  Biso   1.000  C 
  C167     1.0000 0.20833  0.84196  0.26862  Biso   1.000  C 
  H389     1.0000 0.22065  0.89187  0.26857  Biso   1.000  H 
  C168     1.0000 0.14075  0.83538  0.23728  Biso   1.000  C 
  H390     1.0000 0.21453  0.82200  0.31597  Biso   1.000  H 
  H391     1.0000 0.10841  0.91250  0.29828  Biso   1.000  H 
  H392     1.0000 0.08713  0.92163  0.22597  Biso   1.000  H 
  C169     1.0000 0.14976  0.84376  0.16276  Biso   1.000  C 
  C170     1.0000 0.12937  0.76653  0.25852  Biso   1.000  C 
  H393     1.0000 0.88251  0.77841  0.31713  Biso   1.000  H 
  H394     1.0000 0.82824  0.75999  0.25759  Biso   1.000  H 
  H395     1.0000 0.90377  0.75257  0.24172  Biso   1.000  H 
  H396     1.0000 0.78410  0.62798  0.32838  Biso   1.000  H 
  H397     1.0000 0.76090  0.68319  0.26728  Biso   1.000  H 
  H398     1.0000 0.79109  0.60996  0.25128  Biso   1.000  H 
  H399     1.0000 0.14668  0.79902  0.13632  Biso   1.000  H 
  H400     1.0000 0.11418  0.87305  0.13830  Biso   1.000  H 
  H401     1.0000 0.19493  0.86667  0.15314  Biso   1.000  H 
  H402     1.0000 0.17072  0.73806  0.26610  Biso   1.000  H 
  H403     1.0000 0.10389  0.73971  0.22309  Biso   1.000  H 
  H404     1.0000 0.10950  0.76725  0.30709  Biso   1.000  H 
  H405     1.0000 0.99098  0.91951  0.27976  Biso   1.000  H 
  H406     1.0000 0.01007  0.58899  0.23218  Biso   1.000  H 
  H407     1.0000 0.24241  0.81865  0.24277  Biso   1.000  H 
  H408     1.0000 0.89221  0.62222  0.38907  Biso   1.000  H 
  B287     1.0000 0.00000  0.34640  0.65360  Biso   1.000  B 
  B288     1.0000 0.00000  0.40471  0.67046  Biso   1.000  B 
  B289     1.0000 0.00000  0.32954  0.59529  Biso   1.000  B 
  B290     1.0000 0.00000  0.29500  0.70500  Biso   1.000  B 
  B291     1.0000 0.00000  0.23249  0.68437  Biso   1.000  B 
  B292     1.0000 0.00000  0.22128  0.63046  Biso   1.000  B 
  N35      1.0000 0.95778  0.12900  0.71849  Biso   1.000  N 
  B293     1.0000 0.00000  0.18442  0.73248  Biso   1.000  B 
  B294     1.0000 0.00000  0.20500  0.79499  Biso   1.000  B 
  B295     1.0000 0.00000  0.26751  0.81558  Biso   1.000  B 
  B296     1.0000 0.00000  0.31563  0.76751  Biso   1.000  B 
  N36      1.0000 0.04665  0.37104  0.78098  Biso   1.000  N 
  B297     1.0000 0.00000  0.27872  0.86949  Biso   1.000  B 
  B298     1.0000 0.00000  0.17046  0.90470  Biso   1.000  B 
  B299     1.0000 0.00000  0.15360  0.84639  Biso   1.000  B 
  B300     1.0000 0.00000  0.09529  0.82953  Biso   1.000  B 
  C171     1.0000 0.90083  0.12667  0.76552  Biso   1.000  C 
  C172     1.0000 0.88402  0.20838  0.87723  Biso   1.000  C 
  C173     1.0000 0.86371  0.18336  0.81178  Biso   1.000  C 
  H409     1.0000 0.84310  0.22969  0.89958  Biso   1.000  H 
  H410     1.0000 0.91722  0.24457  0.88842  Biso   1.000  H 
  H411     1.0000 0.87088  0.10121  0.73522  Biso   1.000  H 
  H412     1.0000 0.90602  0.09451  0.80184  Biso   1.000  H 
  C174     1.0000 0.80035  0.14472  0.84280  Biso   1.000  C 
  C175     1.0000 0.86030  0.24414  0.77070  Biso   1.000  C 
  C176     1.0000 0.10308  0.37292  0.73382  Biso   1.000  C 
  C177     1.0000 0.20215  0.35069  0.66443  Biso   1.000  C 
  H413     1.0000 0.19986  0.39641  0.67731  Biso   1.000  H 
  C178     1.0000 0.13677  0.31679  0.68910  Biso   1.000  C 
  H414     1.0000 0.24190  0.33219  0.68786  Biso   1.000  H 
  H415     1.0000 0.13451  0.39702  0.76343  Biso   1.000  H 
  H416     1.0000 0.09708  0.40484  0.69759  Biso   1.000  H 
  C179     1.0000 0.11656  0.29802  0.62437  Biso   1.000  C 
  C180     1.0000 0.13887  0.25146  0.72343  Biso   1.000  C 
  H417     1.0000 0.86767  0.29093  0.79378  Biso   1.000  H 
  H418     1.0000 0.81306  0.24037  0.76016  Biso   1.000  H 
  H419     1.0000 0.88567  0.24387  0.72604  Biso   1.000  H 
  H420     1.0000 0.79390  0.13175  0.89422  Biso   1.000  H 
  H421     1.0000 0.75574  0.16882  0.83120  Biso   1.000  H 
  H422     1.0000 0.80021  0.10229  0.82147  Biso   1.000  H 
  H423     1.0000 0.08192  0.26327  0.61410  Biso   1.000  H 
  H424     1.0000 0.10466  0.34510  0.60385  Biso   1.000  H 
  H425     1.0000 0.15497  0.27580  0.60032  Biso   1.000  H 
  H426     1.0000 0.17929  0.24813  0.75255  Biso   1.000  H 
  H427     1.0000 0.13737  0.20719  0.69392  Biso   1.000  H 
  H428     1.0000 0.09941  0.24909  0.75438  Biso   1.000  H 
  H429     1.0000 0.02230  0.41571  0.78390  Biso   1.000  H 
  H430     1.0000 0.99012  0.09319  0.72630  Biso   1.000  H 
  H431     1.0000 0.21462  0.35496  0.61290  Biso   1.000  H 
  H432     1.0000 0.89703  0.16385  0.90006  Biso   1.000  H 
  B301     1.0000 0.50000  0.84640  0.65360  Biso   1.000  B 
  B302     1.0000 0.50000  0.90471  0.67046  Biso   1.000  B 
  B303     1.0000 0.50000  0.82954  0.59529  Biso   1.000  B 
  B304     1.0000 0.50000  0.79500  0.70500  Biso   1.000  B 
  B305     1.0000 0.50000  0.73249  0.68437  Biso   1.000  B 
  B306     1.0000 0.50000  0.72128  0.63046  Biso   1.000  B 
  N37      1.0000 0.46053  0.62437  0.72007  Biso   1.000  N 
  B307     1.0000 0.50000  0.68442  0.73248  Biso   1.000  B 
  B308     1.0000 0.50000  0.70500  0.79499  Biso   1.000  B 
  B309     1.0000 0.50000  0.76751  0.81558  Biso   1.000  B 
  B310     1.0000 0.50000  0.81563  0.76751  Biso   1.000  B 
  N38      1.0000 0.54847  0.86974  0.77834  Biso   1.000  N 
  B311     1.0000 0.50000  0.77872  0.86949  Biso   1.000  B 
  B312     1.0000 0.50000  0.67046  0.90470  Biso   1.000  B 
  B313     1.0000 0.50000  0.65360  0.84639  Biso   1.000  B 
  B314     1.0000 0.50000  0.59529  0.82953  Biso   1.000  B 
  C181     1.0000 0.39811  0.62471  0.75971  Biso   1.000  C 
  C182     1.0000 0.38236  0.69781  0.87429  Biso   1.000  C 
  C183     1.0000 0.36271  0.67830  0.80870  Biso   1.000  C 
  H433     1.0000 0.34626  0.72256  0.89975  Biso   1.000  H 
  H434     1.0000 0.41895  0.73060  0.88329  Biso   1.000  H 
  H435     1.0000 0.36580  0.60587  0.72830  Biso   1.000  H 
  H436     1.0000 0.40431  0.59047  0.79297  Biso   1.000  H 
  C184     1.0000 0.29631  0.64802  0.83616  Biso   1.000  C 
  C185     1.0000 0.36240  0.74295  0.77604  Biso   1.000  C 
  C186     1.0000 0.60534  0.87363  0.73135  Biso   1.000  C 
  C187     1.0000 0.70815  0.85159  0.66048  Biso   1.000  C 
  H437     1.0000 0.70351  0.89718  0.67244  Biso   1.000  H 
  C188     1.0000 0.64074  0.81968  0.68557  Biso   1.000  C 
  H438     1.0000 0.75288  0.83385  0.67996  Biso   1.000  H 
  H439     1.0000 0.63834  0.89724  0.76035  Biso   1.000  H 
  H440     1.0000 0.59698  0.90424  0.69450  Biso   1.000  H 
  C189     1.0000 0.61698  0.80328  0.62293  Biso   1.000  C 
  C190     1.0000 0.63960  0.75555  0.71651  Biso   1.000  C 
  H441     1.0000 0.39220  0.74124  0.73457  Biso   1.000  H 
  H442     1.0000 0.37185  0.78647  0.80463  Biso   1.000  H 
  H443     1.0000 0.31641  0.74642  0.75990  Biso   1.000  H 
  H444     1.0000 0.28166  0.64847  0.88776  Biso   1.000  H 
  H445     1.0000 0.25674  0.66096  0.80972  Biso   1.000  H 
  H446     1.0000 0.30307  0.60058  0.82950  Biso   1.000  H 
  H447     1.0000 0.58003  0.76987  0.61519  Biso   1.000  H 
  H448     1.0000 0.60741  0.84981  0.60207  Biso   1.000  H 
  H449     1.0000 0.65444  0.77783  0.59969  Biso   1.000  H 
  H450     1.0000 0.68455  0.75029  0.73390  Biso   1.000  H 
  H451     1.0000 0.62870  0.71232  0.68739  Biso   1.000  H 
  H452     1.0000 0.60776  0.75730  0.75663  Biso   1.000  H 
  H453     1.0000 0.52596  0.91486  0.78446  Biso   1.000  H 
  H454     1.0000 0.49029  0.58339  0.72434  Biso   1.000  H 
  H455     1.0000 0.71793  0.85674  0.60899  Biso   1.000  H 
  H456     1.0000 0.39295  0.65220  0.89719  Biso   1.000  H 
  B315     1.0000 0.50000  0.34640  0.15360  Biso   1.000  B 
  B316     1.0000 0.50000  0.40471  0.17046  Biso   1.000  B 
  B317     1.0000 0.50000  0.32954  0.09529  Biso   1.000  B 
  B318     1.0000 0.50000  0.29500  0.20500  Biso   1.000  B 
  B319     1.0000 0.50000  0.23249  0.18437  Biso   1.000  B 
  B320     1.0000 0.50000  0.22128  0.13046  Biso   1.000  B 
  N39      1.0000 0.45759  0.12554  0.22289  Biso   1.000  N 
  B321     1.0000 0.50000  0.18442  0.23249  Biso   1.000  B 
  B322     1.0000 0.50000  0.20500  0.29500  Biso   1.000  B 
  B323     1.0000 0.50000  0.26751  0.31558  Biso   1.000  B 
  B324     1.0000 0.50000  0.31563  0.26751  Biso   1.000  B 
  N40      1.0000 0.54744  0.37010  0.27803  Biso   1.000  N 
  B325     1.0000 0.50000  0.27872  0.36949  Biso   1.000  B 
  B326     1.0000 0.50000  0.17046  0.40470  Biso   1.000  B 
  B327     1.0000 0.50000  0.15360  0.34640  Biso   1.000  B 
  B328     1.0000 0.50000  0.09529  0.32954  Biso   1.000  B 
  C191     1.0000 0.39762  0.12613  0.26647  Biso   1.000  C 
  C192     1.0000 0.38751  0.20533  0.38031  Biso   1.000  C 
  C193     1.0000 0.36558  0.18286  0.31501  Biso   1.000  C 
  H457     1.0000 0.34901  0.22961  0.40217  Biso   1.000  H 
  H458     1.0000 0.42221  0.23911  0.39131  Biso   1.000  H 
  H459     1.0000 0.36581  0.10334  0.23639  Biso   1.000  H 
  H460     1.0000 0.40393  0.09318  0.30029  Biso   1.000  H 
  C194     1.0000 0.30083  0.15180  0.34053  Biso   1.000  C 
  C195     1.0000 0.36598  0.24511  0.28149  Biso   1.000  C 
  C196     1.0000 0.60506  0.36366  0.23534  Biso   1.000  C 
  C197     1.0000 0.70179  0.34694  0.15931  Biso   1.000  C 
  H461     1.0000 0.69289  0.39443  0.16829  Biso   1.000  H 
  C198     1.0000 0.63904  0.31025  0.19078  Biso   1.000  C 
  H462     1.0000 0.75067  0.34058  0.17121  Biso   1.000  H 
  H463     1.0000 0.64206  0.37785  0.26541  Biso   1.000  H 
  H464     1.0000 0.60050  0.40004  0.20128  Biso   1.000  H 
  C199     1.0000 0.61505  0.28889  0.12578  Biso   1.000  C 
  C200     1.0000 0.63664  0.24282  0.22447  Biso   1.000  C 
  H465     1.0000 0.39314  0.24005  0.23997  Biso   1.000  H 
  H466     1.0000 0.38191  0.28994  0.30666  Biso   1.000  H 
  H467     1.0000 0.32067  0.25102  0.27120  Biso   1.000  H 
  H468     1.0000 0.28793  0.15407  0.39183  Biso   1.000  H 
  H469     1.0000 0.26114  0.16458  0.31373  Biso   1.000  H 
  H470     1.0000 0.30429  0.10366  0.33458  Biso   1.000  H 
  H471     1.0000 0.58080  0.25674  0.11412  Biso   1.000  H 
  H472     1.0000 0.60506  0.33421  0.10244  Biso   1.000  H 
  H473     1.0000 0.65379  0.26557  0.10251  Biso   1.000  H 
  H474     1.0000 0.68375  0.22428  0.23201  Biso   1.000  H 
  H475     1.0000 0.61389  0.20253  0.19866  Biso   1.000  H 
  H476     1.0000 0.61151  0.24541  0.27142  Biso   1.000  H 
  H477     1.0000 0.52379  0.41475  0.27356  Biso   1.000  H 
  H478     1.0000 0.48358  0.08150  0.22420  Biso   1.000  H 
  H479     1.0000 0.70653  0.35043  0.10632  Biso   1.000  H 
  H480     1.0000 0.39725  0.15930  0.40051  Biso   1.000  H 
  B329     1.0000 0.00000  0.84640  0.84640  Biso   1.000  B 
  B330     1.0000 0.00000  0.90471  0.82954  Biso   1.000  B 
  B331     1.0000 0.00000  0.82954  0.90471  Biso   1.000  B 
  B332     1.0000 0.00000  0.79500  0.79500  Biso   1.000  B 
  B333     1.0000 0.00000  0.73249  0.81563  Biso   1.000  B 
  B334     1.0000 0.00000  0.72128  0.86954  Biso   1.000  B 
  N41      1.0000 0.98415  0.61616  0.78655  Biso   1.000  N 
  B335     1.0000 0.00000  0.68442  0.76752  Biso   1.000  B 
  B336     1.0000 0.00000  0.70500  0.70501  Biso   1.000  B 
  B337     1.0000 0.00000  0.76751  0.68442  Biso   1.000  B 
  B338     1.0000 0.00000  0.81563  0.73249  Biso   1.000  B 
  N42      1.0000 0.99198  0.88648  0.72037  Biso   1.000  N 
  B339     1.0000 0.00000  0.77872  0.63051  Biso   1.000  B 
  B340     1.0000 0.00000  0.67046  0.59530  Biso   1.000  B 
  B341     1.0000 0.00000  0.65360  0.65361  Biso   1.000  B 
  B342     1.0000 0.00000  0.59529  0.67047  Biso   1.000  B 
  C201     1.0000 0.02478  0.59743  0.83913  Biso   1.000  C 
  C202     1.0000 0.09760  0.59476  0.75227  Biso   1.000  C 
  C203     1.0000 0.09736  0.61006  0.82345  Biso   1.000  C 
  H481     1.0000 0.14314  0.58912  0.72984  Biso   1.000  H 
  H482     1.0000 0.08496  0.63107  0.72445  Biso   1.000  H 
  H483     1.0000 0.01059  0.62218  0.88327  Biso   1.000  H 
  H484     1.0000 0.01483  0.54535  0.84779  Biso   1.000  H 
  C204     1.0000 0.12698  0.58177  0.88542  Biso   1.000  C 
  C205     1.0000 0.13690  0.67325  0.81339  Biso   1.000  C 
  C206     1.0000 0.95959  0.90006  0.66280  Biso   1.000  C 
  C207     1.0000 0.95268  0.01261  0.63727  Biso   1.000  C 
  H485     1.0000 0.95527  0.01670  0.68738  Biso   1.000  H 
  C208     1.0000 0.98787  0.95454  0.61670  Biso   1.000  C 
  H486     1.0000 0.96836  0.06016  0.61506  Biso   1.000  H 
  H487     1.0000 0.90773  0.91040  0.67511  Biso   1.000  H 
  H488     1.0000 0.95805  0.86122  0.63238  Biso   1.000  H 
  C209     1.0000 0.97153  0.93795  0.54925  Biso   1.000  C 
  C210     1.0000 0.05779  0.97559  0.62744  Biso   1.000  C 
  H489     1.0000 0.17161  0.67355  0.77858  Biso   1.000  H 
  H490     1.0000 0.10742  0.71080  0.79549  Biso   1.000  H 
  H491     1.0000 0.16555  0.68292  0.85516  Biso   1.000  H 
  H492     1.0000 0.18039  0.58844  0.88764  Biso   1.000  H 
  H493     1.0000 0.10699  0.61128  0.92530  Biso   1.000  H 
  H494     1.0000 0.11249  0.53113  0.89763  Biso   1.000  H 
  H495     1.0000 0.92218  0.93678  0.53597  Biso   1.000  H 
  H496     1.0000 0.00010  0.96756  0.52034  Biso   1.000  H 
  H497     1.0000 0.99217  0.88831  0.54433  Biso   1.000  H 
  H498     1.0000 0.07070  0.02018  0.60260  Biso   1.000  H 
  H499     1.0000 0.09612  0.94124  0.62156  Biso   1.000  H 
  H500     1.0000 0.05315  0.98617  0.67868  Biso   1.000  H 
  H501     1.0000 0.03654  0.90821  0.72850  Biso   1.000  H 
  H502     1.0000 0.95499  0.57952  0.76419  Biso   1.000  H 
  H503     1.0000 0.90355  0.99775  0.62274  Biso   1.000  H 
  H504     1.0000 0.06194  0.55390  0.74521  Biso   1.000  H 
  B343     1.0000 0.00000  0.34640  0.34640  Biso   1.000  B 
  B344     1.0000 0.00000  0.40471  0.32954  Biso   1.000  B 
  B345     1.0000 0.00000  0.32954  0.40471  Biso   1.000  B 
  B346     1.0000 0.00000  0.29500  0.29500  Biso   1.000  B 
  B347     1.0000 0.00000  0.23249  0.31563  Biso   1.000  B 
  B348     1.0000 0.00000  0.22128  0.36954  Biso   1.000  B 
  N43      1.0000 0.98720  0.11715  0.28888  Biso   1.000  N 
  B349     1.0000 0.00000  0.18442  0.26751  Biso   1.000  B 
  B350     1.0000 0.00000  0.20500  0.20500  Biso   1.000  B 
  B351     1.0000 0.00000  0.26751  0.18442  Biso   1.000  B 
  B352     1.0000 0.00000  0.31563  0.23249  Biso   1.000  B 
  N44      1.0000 0.97979  0.38514  0.21224  Biso   1.000  N 
  B353     1.0000 0.00000  0.27872  0.13051  Biso   1.000  B 
  B354     1.0000 0.00000  0.17046  0.09530  Biso   1.000  B 
  B355     1.0000 0.00000  0.15360  0.15360  Biso   1.000  B 
  B356     1.0000 0.00000  0.09529  0.17046  Biso   1.000  B 
  C211     1.0000 0.03824  0.10525  0.33621  Biso   1.000  C 
  C212     1.0000 0.11406  0.10570  0.24540  Biso   1.000  C 
  C213     1.0000 0.10791  0.13562  0.31162  Biso   1.000  C 
  H505     1.0000 0.16174  0.09738  0.24488  Biso   1.000  H 
  H506     1.0000 0.10595  0.12686  0.19812  Biso   1.000  H 
  H507     1.0000 0.02797  0.12815  0.38121  Biso   1.000  H 
  H508     1.0000 0.03960  0.05345  0.34735  Biso   1.000  H 
  C214     1.0000 0.15676  0.12951  0.36100  Biso   1.000  C 
  C215     1.0000 0.12484  0.20095  0.28102  Biso   1.000  C 
  C216     1.0000 0.96406  0.40187  0.13848  Biso   1.000  C 
  C217     1.0000 0.00192  0.51131  0.15014  Biso   1.000  C 
  H509     1.0000 0.95863  0.51480  0.18423  Biso   1.000  H 
  C218     1.0000 0.00132  0.46063  0.09869  Biso   1.000  C 
  H510     1.0000 0.04041  0.50285  0.18066  Biso   1.000  H 
  H511     1.0000 0.91007  0.41203  0.13926  Biso   1.000  H 
  H512     1.0000 0.96990  0.36227  0.10229  Biso   1.000  H 
  C219     1.0000 0.96456  0.47581  0.03892  Biso   1.000  C 
  C220     1.0000 0.07297  0.46708  0.07000  Biso   1.000  C 
  H513     1.0000 0.10936  0.21271  0.23876  Biso   1.000  H 
  H514     1.0000 0.10710  0.23759  0.29973  Biso   1.000  H 
  H515     1.0000 0.17454  0.20485  0.27717  Biso   1.000  H 
  H516     1.0000 0.18834  0.09599  0.34393  Biso   1.000  H 
  H517     1.0000 0.18489  0.16994  0.37151  Biso   1.000  H 
  H518     1.0000 0.13143  0.12101  0.40470  Biso   1.000  H 
  H519     1.0000 0.96259  0.52413  0.02632  Biso   1.000  H 
  H520     1.0000 0.98509  0.45535  0.99505  Biso   1.000  H 
  H521     1.0000 0.91565  0.45316  0.04106  Biso   1.000  H 
  H522     1.0000 0.08827  0.51940  0.05768  Biso   1.000  H 
  H523     1.0000 0.08129  0.44113  0.02526  Biso   1.000  H 
  H524     1.0000 0.11065  0.45221  0.10308  Biso   1.000  H 
  H525     1.0000 0.01077  0.41920  0.22932  Biso   1.000  H 
  H526     1.0000 0.94150  0.10197  0.29570  Biso   1.000  H 
  H527     1.0000 0.01244  0.55515  0.12684  Biso   1.000  H 
  H528     1.0000 0.08065  0.06624  0.24476  Biso   1.000  H 
  B357     1.0000 0.50000  0.84640  0.34640  Biso   1.000  B 
  B358     1.0000 0.50000  0.90471  0.32954  Biso   1.000  B 
  B359     1.0000 0.50000  0.82954  0.40471  Biso   1.000  B 
  B360     1.0000 0.50000  0.79500  0.29500  Biso   1.000  B 
  B361     1.0000 0.50000  0.73249  0.31563  Biso   1.000  B 
  B362     1.0000 0.50000  0.72128  0.36954  Biso   1.000  B 
  N45      1.0000 0.49656  0.61638  0.28722  Biso   1.000  N 
  B363     1.0000 0.50000  0.68442  0.26751  Biso   1.000  B 
  B364     1.0000 0.50000  0.70500  0.20500  Biso   1.000  B 
  B365     1.0000 0.50000  0.76751  0.18442  Biso   1.000  B 
  B366     1.0000 0.50000  0.81563  0.23249  Biso   1.000  B 
  N46      1.0000 0.50173  0.88537  0.21556  Biso   1.000  N 
  B367     1.0000 0.50000  0.77872  0.13051  Biso   1.000  B 
  B368     1.0000 0.50000  0.67046  0.09530  Biso   1.000  B 
  B369     1.0000 0.50000  0.65360  0.15360  Biso   1.000  B 
  B370     1.0000 0.50000  0.59529  0.17046  Biso   1.000  B 
  C221     1.0000 0.55430  0.61414  0.32766  Biso   1.000  C 
  C222     1.0000 0.62021  0.61034  0.23119  Biso   1.000  C 
  C223     1.0000 0.61831  0.64307  0.29290  Biso   1.000  C 
  H529     1.0000 0.67067  0.60321  0.22358  Biso   1.000  H 
  H530     1.0000 0.60611  0.62885  0.18327  Biso   1.000  H 
  H531     1.0000 0.54875  0.63942  0.37073  Biso   1.000  H 
  H532     1.0000 0.55911  0.56283  0.34106  Biso   1.000  H 
  C224     1.0000 0.66606  0.62380  0.34536  Biso   1.000  C 
  C225     1.0000 0.63525  0.70444  0.25653  Biso   1.000  C 
  C226     1.0000 0.44155  0.88921  0.18319  Biso   1.000  C 
  C227     1.0000 0.32802  0.87581  0.16725  Biso   1.000  C 
  H533     1.0000 0.34251  0.90799  0.12915  Biso   1.000  H 
  C228     1.0000 0.37892  0.86175  0.22035  Biso   1.000  C 
  H534     1.0000 0.31496  0.83394  0.14189  Biso   1.000  H 
  H535     1.0000 0.44290  0.86618  0.13739  Biso   1.000  H 
  H536     1.0000 0.43986  0.93984  0.17082  Biso   1.000  H 
  C229     1.0000 0.37227  0.88778  0.28527  Biso   1.000  C 
  C230     1.0000 0.36722  0.79331  0.25008  Biso   1.000  C 
  H537     1.0000 0.64720  0.71288  0.20518  Biso   1.000  H 
  H538     1.0000 0.59942  0.73528  0.26282  Biso   1.000  H 
  H539     1.0000 0.67546  0.72023  0.28090  Biso   1.000  H 
  H540     1.0000 0.70006  0.60453  0.31652  Biso   1.000  H 
  H541     1.0000 0.69167  0.66320  0.36880  Biso   1.000  H 
  H542     1.0000 0.65137  0.58866  0.38125  Biso   1.000  H 
  H543     1.0000 0.39932  0.92612  0.27277  Biso   1.000  H 
  H544     1.0000 0.32253  0.89399  0.29333  Biso   1.000  H 
  H545     1.0000 0.39203  0.87068  0.33250  Biso   1.000  H 
  H546     1.0000 0.36251  0.77953  0.30149  Biso   1.000  H 
  H547     1.0000 0.40009  0.76041  0.23666  Biso   1.000  H 
  H548     1.0000 0.32338  0.77638  0.22871  Biso   1.000  H 
  H549     1.0000 0.53995  0.88860  0.18472  Biso   1.000  H 
  H550     1.0000 0.45262  0.60948  0.31349  Biso   1.000  H 
  H551     1.0000 0.28410  0.89396  0.18816  Biso   1.000  H 
  H552     1.0000 0.59208  0.57001  0.23728  Biso   1.000  H 
  B371     1.0000 0.50000  0.34640  0.84640  Biso   1.000  B 
  B372     1.0000 0.50000  0.40471  0.82954  Biso   1.000  B 
  B373     1.0000 0.50000  0.32954  0.90471  Biso   1.000  B 
  B374     1.0000 0.50000  0.29500  0.79500  Biso   1.000  B 
  B375     1.0000 0.50000  0.23249  0.81563  Biso   1.000  B 
  B376     1.0000 0.50000  0.22128  0.86954  Biso   1.000  B 
  N47      1.0000 0.48391  0.11821  0.78793  Biso   1.000  N 
  B377     1.0000 0.50000  0.18442  0.76752  Biso   1.000  B 
  B378     1.0000 0.50000  0.20500  0.70501  Biso   1.000  B 
  B379     1.0000 0.50000  0.26751  0.68442  Biso   1.000  B 
  B380     1.0000 0.50000  0.31563  0.73249  Biso   1.000  B 
  N48      1.0000 0.51415  0.38493  0.71151  Biso   1.000  N 
  B381     1.0000 0.50000  0.27872  0.63051  Biso   1.000  B 
  B382     1.0000 0.50000  0.17046  0.59530  Biso   1.000  B 
  B383     1.0000 0.50000  0.15360  0.65361  Biso   1.000  B 
  B384     1.0000 0.50000  0.09529  0.67047  Biso   1.000  B 
  C231     1.0000 0.53566  0.10818  0.83382  Biso   1.000  C 
  C232     1.0000 0.59810  0.09467  0.74562  Biso   1.000  C 
  C233     1.0000 0.60207  0.12825  0.80670  Biso   1.000  C 
  H553     1.0000 0.64245  0.08777  0.73328  Biso   1.000  H 
  H554     1.0000 0.58751  0.12216  0.70493  Biso   1.000  H 
  H555     1.0000 0.52769  0.13392  0.87898  Biso   1.000  H 
  H556     1.0000 0.53480  0.05521  0.84409  Biso   1.000  H 
  C234     1.0000 0.64626  0.10621  0.85870  Biso   1.000  C 
  C235     1.0000 0.62903  0.19390  0.77440  Biso   1.000  C 
  C236     1.0000 0.46112  0.39416  0.66739  Biso   1.000  C 
  C237     1.0000 0.34814  0.38455  0.64265  Biso   1.000  C 
  H557     1.0000 0.36651  0.42201  0.60946  Biso   1.000  H 
  C238     1.0000 0.39516  0.36744  0.69693  Biso   1.000  C 
  H558     1.0000 0.32853  0.34623  0.61447  Biso   1.000  H 
  H559     1.0000 0.47026  0.37293  0.62297  Biso   1.000  H 
  H560     1.0000 0.45812  0.44797  0.65923  Biso   1.000  H 
  C239     1.0000 0.39055  0.39659  0.76111  Biso   1.000  C 
  C240     1.0000 0.37175  0.30144  0.73077  Biso   1.000  C 
  H561     1.0000 0.64298  0.19569  0.72139  Biso   1.000  H 
  H562     1.0000 0.60135  0.23284  0.77391  Biso   1.000  H 
  H563     1.0000 0.66890  0.20378  0.79994  Biso   1.000  H 
  H564     1.0000 0.69043  0.09783  0.83774  Biso   1.000  H 
  H565     1.0000 0.65531  0.14090  0.89450  Biso   1.000  H 
  H566     1.0000 0.62613  0.06298  0.88400  Biso   1.000  H 
  H567     1.0000 0.42051  0.43669  0.75785  Biso   1.000  H 
  H568     1.0000 0.34180  0.40382  0.76471  Biso   1.000  H 
  H569     1.0000 0.40066  0.37490  0.80750  Biso   1.000  H 
  H570     1.0000 0.36282  0.29189  0.78278  Biso   1.000  H 
  H571     1.0000 0.40059  0.26456  0.72332  Biso   1.000  H 
  H572     1.0000 0.32920  0.29159  0.70782  Biso   1.000  H 
  H573     1.0000 0.55854  0.38768  0.68890  Biso   1.000  H 
  H574     1.0000 0.43917  0.12240  0.80969  Biso   1.000  H 
  H575     1.0000 0.30808  0.40064  0.66677  Biso   1.000  H 
  H576     1.0000 0.56403  0.05283  0.74638  Biso   1.000  H 
