data_image0
_cell_length_a       26.896
_cell_length_b       26.896
_cell_length_c       26.896
_cell_angle_alpha    90
_cell_angle_beta     90
_cell_angle_gamma    90

_symmetry_space_group_name_H-M    "P 1"
_symmetry_int_tables_number       1

loop_
  _symmetry_equiv_pos_as_xyz
  'x, y, z'

loop_
  _atom_site_label
  _atom_site_occupancy
  _atom_site_fract_x
  _atom_site_fract_y
  _atom_site_fract_z
  _atom_site_thermal_displace_type
  _atom_site_B_iso_or_equiv
  _atom_site_type_symbol
  B1       1.0000 0.09204  0.00000  0.00000  Biso   1.000  B 
  B2       1.0000 0.90796  0.00000  0.00000  Biso   1.000  B 
  B3       1.0000 0.00000  0.09204  0.00000  Biso   1.000  B 
  B4       1.0000 0.00000  0.90796  0.00000  Biso   1.000  B 
  B5       1.0000 0.00000  0.00000  0.09204  Biso   1.000  B 
  B6       1.0000 0.00000  0.00000  0.90796  Biso   1.000  B 
  B7       1.0000 0.09204  0.50000  0.50000  Biso   1.000  B 
  B8       1.0000 0.90796  0.50000  0.50000  Biso   1.000  B 
  B9       1.0000 0.00000  0.59204  0.50000  Biso   1.000  B 
  B10      1.0000 0.00000  0.40796  0.50000  Biso   1.000  B 
  B11      1.0000 0.00000  0.50000  0.59204  Biso   1.000  B 
  B12      1.0000 0.00000  0.50000  0.40796  Biso   1.000  B 
  B13      1.0000 0.59204  0.00000  0.50000  Biso   1.000  B 
  B14      1.0000 0.40796  0.00000  0.50000  Biso   1.000  B 
  B15      1.0000 0.50000  0.09204  0.50000  Biso   1.000  B 
  B16      1.0000 0.50000  0.90796  0.50000  Biso   1.000  B 
  B17      1.0000 0.50000  0.00000  0.59204  Biso   1.000  B 
  B18      1.0000 0.50000  0.00000  0.40796  Biso   1.000  B 
  B19      1.0000 0.59204  0.50000  0.00000  Biso   1.000  B 
  B20      1.0000 0.40796  0.50000  0.00000  Biso   1.000  B 
  B21      1.0000 0.50000  0.59204  0.00000  Biso   1.000  B 
  B22      1.0000 0.50000  0.40796  0.00000  Biso   1.000  B 
  B23      1.0000 0.50000  0.50000  0.09204  Biso   1.000  B 
  B24      1.0000 0.50000  0.50000  0.90796  Biso   1.000  B 
  B25      1.0000 0.04540  0.04540  0.04540  Biso   1.000  B 
  B26      1.0000 0.95460  0.95460  0.04540  Biso   1.000  B 
  B27      1.0000 0.95460  0.04540  0.95460  Biso   1.000  B 
  B28      1.0000 0.04540  0.95460  0.95460  Biso   1.000  B 
  B29      1.0000 0.04540  0.04540  0.95460  Biso   1.000  B 
  B30      1.0000 0.95460  0.95460  0.95460  Biso   1.000  B 
  B31      1.0000 0.04540  0.95460  0.04540  Biso   1.000  B 
  B32      1.0000 0.95460  0.04540  0.04540  Biso   1.000  B 
  B33      1.0000 0.04540  0.54540  0.54540  Biso   1.000  B 
  B34      1.0000 0.95460  0.45460  0.54540  Biso   1.000  B 
  B35      1.0000 0.95460  0.54540  0.45460  Biso   1.000  B 
  B36      1.0000 0.04540  0.45460  0.45460  Biso   1.000  B 
  B37      1.0000 0.04540  0.54540  0.45460  Biso   1.000  B 
  B38      1.0000 0.95460  0.45460  0.45460  Biso   1.000  B 
  B39      1.0000 0.04540  0.45460  0.54540  Biso   1.000  B 
  B40      1.0000 0.95460  0.54540  0.54540  Biso   1.000  B 
  B41      1.0000 0.54540  0.04540  0.54540  Biso   1.000  B 
  B42      1.0000 0.45460  0.95460  0.54540  Biso   1.000  B 
  B43      1.0000 0.45460  0.04540  0.45460  Biso   1.000  B 
  B44      1.0000 0.54540  0.95460  0.45460  Biso   1.000  B 
  B45      1.0000 0.54540  0.04540  0.45460  Biso   1.000  B 
  B46      1.0000 0.45460  0.95460  0.45460  Biso   1.000  B 
  B47      1.0000 0.54540  0.95460  0.54540  Biso   1.000  B 
  B48      1.0000 0.45460  0.04540  0.54540  Biso   1.000  B 
  B49      1.0000 0.54540  0.54540  0.04540  Biso   1.000  B 
  B50      1.0000 0.45460  0.45460  0.04540  Biso   1.000  B 
  B51      1.0000 0.45460  0.54540  0.95460  Biso   1.000  B 
  B52      1.0000 0.54540  0.45460  0.95460  Biso   1.000  B 
  B53      1.0000 0.54540  0.54540  0.95460  Biso   1.000  B 
  B54      1.0000 0.45460  0.45460  0.95460  Biso   1.000  B 
  B55      1.0000 0.54540  0.45460  0.04540  Biso   1.000  B 
  B56      1.0000 0.45460  0.54540  0.04540  Biso   1.000  B 
  B57      1.0000 0.13260  0.00000  0.07190  Biso   1.000  B 
  B58      1.0000 0.11720  0.00000  0.11720  Biso   1.000  B 
  B59      1.0000 0.07190  0.00000  0.13260  Biso   1.000  B 
  B60      1.0000 0.15650  0.00000  0.15650  Biso   1.000  B 
  B61      1.0000 0.20580  0.00000  0.14470  Biso   1.000  B 
  B62      1.0000 0.14470  0.00000  0.20580  Biso   1.000  B 
  B63      1.0000 0.24200  0.00000  0.17950  Biso   1.000  B 
  B64      1.0000 0.21490  0.00000  0.11140  Biso   1.000  B 
  B65      1.0000 0.17950  0.00000  0.24200  Biso   1.000  B 
  B66      1.0000 0.11140  0.00000  0.21490  Biso   1.000  B 
  B67      1.0000 0.23070  0.00000  0.23070  Biso   1.000  B 
  B68      1.0000 0.26930  0.00000  0.26930  Biso   1.000  B 
  B69      1.0000 0.27510  0.00000  0.16950  Biso   1.000  B 
  B70      1.0000 0.32050  0.00000  0.25800  Biso   1.000  B 
  B71      1.0000 0.16950  0.00000  0.27510  Biso   1.000  B 
  B72      1.0000 0.25800  0.00000  0.32050  Biso   1.000  B 
  B73      1.0000 0.35530  0.00000  0.29420  Biso   1.000  B 
  N1       1.0000 0.34210  0.01547  0.20719  Biso   1.000  N 
  B74      1.0000 0.29420  0.00000  0.35530  Biso   1.000  B 
  B75      1.0000 0.22490  0.00000  0.33050  Biso   1.000  B 
  B76      1.0000 0.34350  0.00000  0.34350  Biso   1.000  B 
  B77      1.0000 0.38280  0.00000  0.38280  Biso   1.000  B 
  B78      1.0000 0.38860  0.00000  0.28510  Biso   1.000  B 
  B79      1.0000 0.28510  0.00000  0.38860  Biso   1.000  B 
  B80      1.0000 0.42810  0.00000  0.36740  Biso   1.000  B 
  B81      1.0000 0.36740  0.00000  0.42810  Biso   1.000  B 
  H1       1.0000 0.35922  0.05061  0.20798  Biso   1.000  H 
  C1       1.0000 0.36520  0.97603  0.17513  Biso   1.000  C 
  C2       1.0000 0.42207  0.98380  0.17131  Biso   1.000  C 
  H2       1.0000 0.43009  0.02104  0.15573  Biso   1.000  H 
  C3       1.0000 0.44932  0.94522  0.13960  Biso   1.000  C 
  H3       1.0000 0.43945  0.98137  0.20836  Biso   1.000  H 
  C4       1.0000 0.43010  0.94748  0.08646  Biso   1.000  C 
  H4       1.0000 0.44062  0.90760  0.15565  Biso   1.000  H 
  H5       1.0000 0.49103  0.94901  0.14412  Biso   1.000  H 
  C5       1.0000 0.34736  0.97986  0.11987  Biso   1.000  C 
  C6       1.0000 0.37222  0.94776  0.08022  Biso   1.000  C 
  H6       1.0000 0.30966  0.96433  0.11686  Biso   1.000  H 
  H7       1.0000 0.35671  0.93894  0.19038  Biso   1.000  H 
  H8       1.0000 0.36013  0.96112  0.04335  Biso   1.000  H 
  H9       1.0000 0.35916  0.90866  0.08527  Biso   1.000  H 
  H10      1.0000 0.44139  0.91224  0.06917  Biso   1.000  H 
  H11      1.0000 0.44729  0.97917  0.06615  Biso   1.000  H 
  H12      1.0000 0.34631  0.01866  0.10490  Biso   1.000  H 
  B82      1.0000 0.86740  0.00000  0.07190  Biso   1.000  B 
  B83      1.0000 0.88280  0.00000  0.11720  Biso   1.000  B 
  B84      1.0000 0.92810  0.00000  0.13260  Biso   1.000  B 
  B85      1.0000 0.84350  0.00000  0.15650  Biso   1.000  B 
  B86      1.0000 0.79420  0.00000  0.14470  Biso   1.000  B 
  B87      1.0000 0.85530  0.00000  0.20580  Biso   1.000  B 
  B88      1.0000 0.75800  0.00000  0.17950  Biso   1.000  B 
  B89      1.0000 0.78510  0.00000  0.11140  Biso   1.000  B 
  B90      1.0000 0.82050  0.00000  0.24200  Biso   1.000  B 
  B91      1.0000 0.88860  0.00000  0.21490  Biso   1.000  B 
  B92      1.0000 0.76930  0.00000  0.23070  Biso   1.000  B 
  B93      1.0000 0.73070  0.00000  0.26930  Biso   1.000  B 
  B94      1.0000 0.72490  0.00000  0.16950  Biso   1.000  B 
  B95      1.0000 0.67950  0.00000  0.25800  Biso   1.000  B 
  B96      1.0000 0.83050  0.00000  0.27510  Biso   1.000  B 
  B97      1.0000 0.74200  0.00000  0.32050  Biso   1.000  B 
  B98      1.0000 0.64470  0.00000  0.29420  Biso   1.000  B 
  N2       1.0000 0.65790  0.98453  0.20719  Biso   1.000  N 
  B99      1.0000 0.70580  0.00000  0.35530  Biso   1.000  B 
  B100     1.0000 0.77510  0.00000  0.33050  Biso   1.000  B 
  B101     1.0000 0.65650  0.00000  0.34350  Biso   1.000  B 
  B102     1.0000 0.61720  0.00000  0.38280  Biso   1.000  B 
  B103     1.0000 0.61140  0.00000  0.28510  Biso   1.000  B 
  B104     1.0000 0.71490  0.00000  0.38860  Biso   1.000  B 
  B105     1.0000 0.57190  0.00000  0.36740  Biso   1.000  B 
  B106     1.0000 0.63260  0.00000  0.42810  Biso   1.000  B 
  H13      1.0000 0.64078  0.94939  0.20798  Biso   1.000  H 
  C7       1.0000 0.63480  0.02397  0.17513  Biso   1.000  C 
  C8       1.0000 0.57793  0.01620  0.17131  Biso   1.000  C 
  H14      1.0000 0.56991  0.97896  0.15573  Biso   1.000  H 
  C9       1.0000 0.55068  0.05478  0.13960  Biso   1.000  C 
  H15      1.0000 0.56055  0.01863  0.20836  Biso   1.000  H 
  C10      1.0000 0.56990  0.05252  0.08646  Biso   1.000  C 
  H16      1.0000 0.55938  0.09240  0.15565  Biso   1.000  H 
  H17      1.0000 0.50897  0.05099  0.14412  Biso   1.000  H 
  C11      1.0000 0.65264  0.02014  0.11987  Biso   1.000  C 
  C12      1.0000 0.62778  0.05224  0.08022  Biso   1.000  C 
  H18      1.0000 0.69034  0.03568  0.11686  Biso   1.000  H 
  H19      1.0000 0.64329  0.06106  0.19038  Biso   1.000  H 
  H20      1.0000 0.63986  0.03888  0.04335  Biso   1.000  H 
  H21      1.0000 0.64084  0.09135  0.08527  Biso   1.000  H 
  H22      1.0000 0.55861  0.08777  0.06917  Biso   1.000  H 
  H23      1.0000 0.55271  0.02083  0.06615  Biso   1.000  H 
  H24      1.0000 0.65369  0.98134  0.10490  Biso   1.000  H 
  B107     1.0000 0.86740  0.00000  0.92810  Biso   1.000  B 
  B108     1.0000 0.88280  0.00000  0.88280  Biso   1.000  B 
  B109     1.0000 0.92810  0.00000  0.86740  Biso   1.000  B 
  B110     1.0000 0.84350  0.00000  0.84350  Biso   1.000  B 
  B111     1.0000 0.79420  0.00000  0.85530  Biso   1.000  B 
  B112     1.0000 0.85530  0.00000  0.79420  Biso   1.000  B 
  B113     1.0000 0.75800  0.00000  0.82050  Biso   1.000  B 
  B114     1.0000 0.78510  0.00000  0.88860  Biso   1.000  B 
  B115     1.0000 0.82050  0.00000  0.75800  Biso   1.000  B 
  B116     1.0000 0.88860  0.00000  0.78510  Biso   1.000  B 
  B117     1.0000 0.76930  0.00000  0.76930  Biso   1.000  B 
  B118     1.0000 0.73070  0.00000  0.73070  Biso   1.000  B 
  B119     1.0000 0.72490  0.00000  0.83050  Biso   1.000  B 
  B120     1.0000 0.67950  0.00000  0.74200  Biso   1.000  B 
  B121     1.0000 0.83050  0.00000  0.72490  Biso   1.000  B 
  B122     1.0000 0.74200  0.00000  0.67950  Biso   1.000  B 
  B123     1.0000 0.64470  0.00000  0.70580  Biso   1.000  B 
  N3       1.0000 0.65790  0.01547  0.79281  Biso   1.000  N 
  B124     1.0000 0.70580  0.00000  0.64470  Biso   1.000  B 
  B125     1.0000 0.77510  0.00000  0.66950  Biso   1.000  B 
  B126     1.0000 0.65650  0.00000  0.65650  Biso   1.000  B 
  B127     1.0000 0.61720  0.00000  0.61720  Biso   1.000  B 
  B128     1.0000 0.61140  0.00000  0.71490  Biso   1.000  B 
  B129     1.0000 0.71490  0.00000  0.61140  Biso   1.000  B 
  B130     1.0000 0.57190  0.00000  0.63260  Biso   1.000  B 
  B131     1.0000 0.63260  0.00000  0.57190  Biso   1.000  B 
  H25      1.0000 0.64078  0.05061  0.79202  Biso   1.000  H 
  C13      1.0000 0.63480  0.97603  0.82487  Biso   1.000  C 
  C14      1.0000 0.57793  0.98380  0.82869  Biso   1.000  C 
  H26      1.0000 0.56991  0.02104  0.84427  Biso   1.000  H 
  C15      1.0000 0.55068  0.94522  0.86040  Biso   1.000  C 
  H27      1.0000 0.56055  0.98137  0.79164  Biso   1.000  H 
  C16      1.0000 0.56990  0.94748  0.91354  Biso   1.000  C 
  H28      1.0000 0.55938  0.90760  0.84435  Biso   1.000  H 
  H29      1.0000 0.50897  0.94901  0.85587  Biso   1.000  H 
  C17      1.0000 0.65264  0.97986  0.88013  Biso   1.000  C 
  C18      1.0000 0.62778  0.94776  0.91978  Biso   1.000  C 
  H30      1.0000 0.69034  0.96433  0.88314  Biso   1.000  H 
  H31      1.0000 0.64329  0.93894  0.80961  Biso   1.000  H 
  H32      1.0000 0.63986  0.96112  0.95665  Biso   1.000  H 
  H33      1.0000 0.64084  0.90866  0.91473  Biso   1.000  H 
  H34      1.0000 0.55861  0.91224  0.93083  Biso   1.000  H 
  H35      1.0000 0.55271  0.97917  0.93385  Biso   1.000  H 
  H36      1.0000 0.65369  0.01866  0.89510  Biso   1.000  H 
  B132     1.0000 0.13260  0.00000  0.92810  Biso   1.000  B 
  B133     1.0000 0.11720  0.00000  0.88280  Biso   1.000  B 
  B134     1.0000 0.07190  0.00000  0.86740  Biso   1.000  B 
  B135     1.0000 0.15650  0.00000  0.84350  Biso   1.000  B 
  B136     1.0000 0.20580  0.00000  0.85530  Biso   1.000  B 
  B137     1.0000 0.14470  0.00000  0.79420  Biso   1.000  B 
  B138     1.0000 0.24200  0.00000  0.82050  Biso   1.000  B 
  B139     1.0000 0.21490  0.00000  0.88860  Biso   1.000  B 
  B140     1.0000 0.17950  0.00000  0.75800  Biso   1.000  B 
  B141     1.0000 0.11140  0.00000  0.78510  Biso   1.000  B 
  B142     1.0000 0.23070  0.00000  0.76930  Biso   1.000  B 
  B143     1.0000 0.26930  0.00000  0.73070  Biso   1.000  B 
  B144     1.0000 0.27510  0.00000  0.83050  Biso   1.000  B 
  B145     1.0000 0.32050  0.00000  0.74200  Biso   1.000  B 
  B146     1.0000 0.16950  0.00000  0.72490  Biso   1.000  B 
  B147     1.0000 0.25800  0.00000  0.67950  Biso   1.000  B 
  B148     1.0000 0.35530  0.00000  0.70580  Biso   1.000  B 
  N4       1.0000 0.34210  0.98453  0.79281  Biso   1.000  N 
  B149     1.0000 0.29420  0.00000  0.64470  Biso   1.000  B 
  B150     1.0000 0.22490  0.00000  0.66950  Biso   1.000  B 
  B151     1.0000 0.34350  0.00000  0.65650  Biso   1.000  B 
  B152     1.0000 0.38280  0.00000  0.61720  Biso   1.000  B 
  B153     1.0000 0.38860  0.00000  0.71490  Biso   1.000  B 
  B154     1.0000 0.28510  0.00000  0.61140  Biso   1.000  B 
  B155     1.0000 0.42810  0.00000  0.63260  Biso   1.000  B 
  B156     1.0000 0.36740  0.00000  0.57190  Biso   1.000  B 
  H37      1.0000 0.35922  0.94939  0.79202  Biso   1.000  H 
  C19      1.0000 0.36520  0.02397  0.82487  Biso   1.000  C 
  C20      1.0000 0.42207  0.01620  0.82869  Biso   1.000  C 
  H38      1.0000 0.43009  0.97896  0.84427  Biso   1.000  H 
  C21      1.0000 0.44932  0.05478  0.86040  Biso   1.000  C 
  H39      1.0000 0.43945  0.01863  0.79164  Biso   1.000  H 
  C22      1.0000 0.43010  0.05252  0.91354  Biso   1.000  C 
  H40      1.0000 0.44062  0.09240  0.84435  Biso   1.000  H 
  H41      1.0000 0.49103  0.05099  0.85587  Biso   1.000  H 
  C23      1.0000 0.34736  0.02014  0.88013  Biso   1.000  C 
  C24      1.0000 0.37222  0.05224  0.91978  Biso   1.000  C 
  H42      1.0000 0.30966  0.03568  0.88314  Biso   1.000  H 
  H43      1.0000 0.35671  0.06106  0.80961  Biso   1.000  H 
  H44      1.0000 0.36013  0.03888  0.95665  Biso   1.000  H 
  H45      1.0000 0.35916  0.09135  0.91473  Biso   1.000  H 
  H46      1.0000 0.44139  0.08777  0.93083  Biso   1.000  H 
  H47      1.0000 0.44729  0.02083  0.93385  Biso   1.000  H 
  H48      1.0000 0.34631  0.98134  0.89510  Biso   1.000  H 
  B157     1.0000 0.07190  0.13260  0.00000  Biso   1.000  B 
  B158     1.0000 0.11720  0.11720  0.00000  Biso   1.000  B 
  B159     1.0000 0.13260  0.07190  0.00000  Biso   1.000  B 
  B160     1.0000 0.15650  0.15650  0.00000  Biso   1.000  B 
  B161     1.0000 0.14470  0.20580  0.00000  Biso   1.000  B 
  B162     1.0000 0.20580  0.14470  0.00000  Biso   1.000  B 
  B163     1.0000 0.17950  0.24200  0.00000  Biso   1.000  B 
  B164     1.0000 0.11140  0.21490  0.00000  Biso   1.000  B 
  B165     1.0000 0.24200  0.17950  0.00000  Biso   1.000  B 
  B166     1.0000 0.21490  0.11140  0.00000  Biso   1.000  B 
  B167     1.0000 0.23070  0.23070  0.00000  Biso   1.000  B 
  B168     1.0000 0.26930  0.26930  0.00000  Biso   1.000  B 
  B169     1.0000 0.16950  0.27510  0.00000  Biso   1.000  B 
  B170     1.0000 0.25800  0.32050  0.00000  Biso   1.000  B 
  B171     1.0000 0.27510  0.16950  0.00000  Biso   1.000  B 
  B172     1.0000 0.32050  0.25800  0.00000  Biso   1.000  B 
  B173     1.0000 0.29420  0.35530  0.00000  Biso   1.000  B 
  N5       1.0000 0.20605  0.34061  0.01150  Biso   1.000  N 
  B174     1.0000 0.35530  0.29420  0.00000  Biso   1.000  B 
  B175     1.0000 0.33050  0.22490  0.00000  Biso   1.000  B 
  B176     1.0000 0.34350  0.34350  0.00000  Biso   1.000  B 
  B177     1.0000 0.38280  0.38280  0.00000  Biso   1.000  B 
  B178     1.0000 0.28510  0.38860  0.00000  Biso   1.000  B 
  B179     1.0000 0.38860  0.28510  0.00000  Biso   1.000  B 
  B180     1.0000 0.36740  0.42810  0.00000  Biso   1.000  B 
  B181     1.0000 0.42810  0.36740  0.00000  Biso   1.000  B 
  H49      1.0000 0.20926  0.36511  0.04158  Biso   1.000  H 
  C25      1.0000 0.18533  0.36658  0.96798  Biso   1.000  C 
  C26      1.0000 0.14240  0.40137  0.98213  Biso   1.000  C 
  H50      1.0000 0.11087  0.37950  0.99773  Biso   1.000  H 
  C27      1.0000 0.12543  0.43163  0.93575  Biso   1.000  C 
  H51      1.0000 0.15620  0.42812  0.01047  Biso   1.000  H 
  C28      1.0000 0.10858  0.39728  0.89291  Biso   1.000  C 
  H52      1.0000 0.15588  0.45682  0.92370  Biso   1.000  H 
  H53      1.0000 0.09338  0.45520  0.94698  Biso   1.000  H 
  C29      1.0000 0.16720  0.33119  0.92535  Biso   1.000  C 
  C30      1.0000 0.15102  0.36235  0.87894  Biso   1.000  C 
  H54      1.0000 0.19811  0.30592  0.91317  Biso   1.000  H 
  H55      1.0000 0.21413  0.39105  0.95171  Biso   1.000  H 
  H56      1.0000 0.13800  0.33706  0.84912  Biso   1.000  H 
  H57      1.0000 0.18273  0.38514  0.86472  Biso   1.000  H 
  H58      1.0000 0.09903  0.42043  0.86021  Biso   1.000  H 
  H59      1.0000 0.07469  0.37687  0.90488  Biso   1.000  H 
  H60      1.0000 0.13473  0.30874  0.93840  Biso   1.000  H 
  B182     1.0000 0.07190  0.86740  0.00000  Biso   1.000  B 
  B183     1.0000 0.11720  0.88280  0.00000  Biso   1.000  B 
  B184     1.0000 0.13260  0.92810  0.00000  Biso   1.000  B 
  B185     1.0000 0.15650  0.84350  0.00000  Biso   1.000  B 
  B186     1.0000 0.14470  0.79420  0.00000  Biso   1.000  B 
  B187     1.0000 0.20580  0.85530  0.00000  Biso   1.000  B 
  B188     1.0000 0.17950  0.75800  0.00000  Biso   1.000  B 
  B189     1.0000 0.11140  0.78510  0.00000  Biso   1.000  B 
  B190     1.0000 0.24200  0.82050  0.00000  Biso   1.000  B 
  B191     1.0000 0.21490  0.88860  0.00000  Biso   1.000  B 
  B192     1.0000 0.23070  0.76930  0.00000  Biso   1.000  B 
  B193     1.0000 0.26930  0.73070  0.00000  Biso   1.000  B 
  B194     1.0000 0.16950  0.72490  0.00000  Biso   1.000  B 
  B195     1.0000 0.25800  0.67950  0.00000  Biso   1.000  B 
  B196     1.0000 0.27510  0.83050  0.00000  Biso   1.000  B 
  B197     1.0000 0.32050  0.74200  0.00000  Biso   1.000  B 
  B198     1.0000 0.29420  0.64470  0.00000  Biso   1.000  B 
  N6       1.0000 0.20605  0.65939  0.98850  Biso   1.000  N 
  B199     1.0000 0.35530  0.70580  0.00000  Biso   1.000  B 
  B200     1.0000 0.33050  0.77510  0.00000  Biso   1.000  B 
  B201     1.0000 0.34350  0.65650  0.00000  Biso   1.000  B 
  B202     1.0000 0.38280  0.61720  0.00000  Biso   1.000  B 
  B203     1.0000 0.28510  0.61140  0.00000  Biso   1.000  B 
  B204     1.0000 0.38860  0.71490  0.00000  Biso   1.000  B 
  B205     1.0000 0.36740  0.57190  0.00000  Biso   1.000  B 
  B206     1.0000 0.42810  0.63260  0.00000  Biso   1.000  B 
  H61      1.0000 0.20926  0.63489  0.95842  Biso   1.000  H 
  C31      1.0000 0.18533  0.63342  0.03202  Biso   1.000  C 
  C32      1.0000 0.14240  0.59863  0.01787  Biso   1.000  C 
  H62      1.0000 0.11087  0.62050  0.00227  Biso   1.000  H 
  C33      1.0000 0.12543  0.56837  0.06425  Biso   1.000  C 
  H63      1.0000 0.15620  0.57188  0.98953  Biso   1.000  H 
  C34      1.0000 0.10858  0.60272  0.10709  Biso   1.000  C 
  H64      1.0000 0.15588  0.54318  0.07630  Biso   1.000  H 
  H65      1.0000 0.09338  0.54480  0.05302  Biso   1.000  H 
  C35      1.0000 0.16720  0.66881  0.07465  Biso   1.000  C 
  C36      1.0000 0.15102  0.63765  0.12106  Biso   1.000  C 
  H66      1.0000 0.19811  0.69407  0.08683  Biso   1.000  H 
  H67      1.0000 0.21413  0.60895  0.04829  Biso   1.000  H 
  H68      1.0000 0.13800  0.66294  0.15089  Biso   1.000  H 
  H69      1.0000 0.18273  0.61486  0.13528  Biso   1.000  H 
  H70      1.0000 0.09903  0.57957  0.13979  Biso   1.000  H 
  H71      1.0000 0.07469  0.62313  0.09512  Biso   1.000  H 
  H72      1.0000 0.13473  0.69126  0.06160  Biso   1.000  H 
  B207     1.0000 0.92810  0.86740  0.00000  Biso   1.000  B 
  B208     1.0000 0.88280  0.88280  0.00000  Biso   1.000  B 
  B209     1.0000 0.86740  0.92810  0.00000  Biso   1.000  B 
  B210     1.0000 0.84350  0.84350  0.00000  Biso   1.000  B 
  B211     1.0000 0.85530  0.79420  0.00000  Biso   1.000  B 
  B212     1.0000 0.79420  0.85530  0.00000  Biso   1.000  B 
  B213     1.0000 0.82050  0.75800  0.00000  Biso   1.000  B 
  B214     1.0000 0.88860  0.78510  0.00000  Biso   1.000  B 
  B215     1.0000 0.75800  0.82050  0.00000  Biso   1.000  B 
  B216     1.0000 0.78510  0.88860  0.00000  Biso   1.000  B 
  B217     1.0000 0.76930  0.76930  0.00000  Biso   1.000  B 
  B218     1.0000 0.73070  0.73070  0.00000  Biso   1.000  B 
  B219     1.0000 0.83050  0.72490  0.00000  Biso   1.000  B 
  B220     1.0000 0.74200  0.67950  0.00000  Biso   1.000  B 
  B221     1.0000 0.72490  0.83050  0.00000  Biso   1.000  B 
  B222     1.0000 0.67950  0.74200  0.00000  Biso   1.000  B 
  B223     1.0000 0.70580  0.64470  0.00000  Biso   1.000  B 
  N7       1.0000 0.79395  0.65939  0.01150  Biso   1.000  N 
  B224     1.0000 0.64470  0.70580  0.00000  Biso   1.000  B 
  B225     1.0000 0.66950  0.77510  0.00000  Biso   1.000  B 
  B226     1.0000 0.65650  0.65650  0.00000  Biso   1.000  B 
  B227     1.0000 0.61720  0.61720  0.00000  Biso   1.000  B 
  B228     1.0000 0.71490  0.61140  0.00000  Biso   1.000  B 
  B229     1.0000 0.61140  0.71490  0.00000  Biso   1.000  B 
  B230     1.0000 0.63260  0.57190  0.00000  Biso   1.000  B 
  B231     1.0000 0.57190  0.63260  0.00000  Biso   1.000  B 
  H73      1.0000 0.79074  0.63489  0.04158  Biso   1.000  H 
  C37      1.0000 0.81467  0.63342  0.96798  Biso   1.000  C 
  C38      1.0000 0.85760  0.59863  0.98213  Biso   1.000  C 
  H74      1.0000 0.88913  0.62050  0.99773  Biso   1.000  H 
  C39      1.0000 0.87457  0.56837  0.93575  Biso   1.000  C 
  H75      1.0000 0.84380  0.57188  0.01047  Biso   1.000  H 
  C40      1.0000 0.89142  0.60272  0.89291  Biso   1.000  C 
  H76      1.0000 0.84412  0.54318  0.92370  Biso   1.000  H 
  H77      1.0000 0.90662  0.54480  0.94698  Biso   1.000  H 
  C41      1.0000 0.83280  0.66881  0.92535  Biso   1.000  C 
  C42      1.0000 0.84898  0.63765  0.87894  Biso   1.000  C 
  H78      1.0000 0.80189  0.69407  0.91317  Biso   1.000  H 
  H79      1.0000 0.78587  0.60895  0.95171  Biso   1.000  H 
  H80      1.0000 0.86201  0.66294  0.84912  Biso   1.000  H 
  H81      1.0000 0.81727  0.61486  0.86472  Biso   1.000  H 
  H82      1.0000 0.90097  0.57957  0.86021  Biso   1.000  H 
  H83      1.0000 0.92531  0.62313  0.90488  Biso   1.000  H 
  H84      1.0000 0.86527  0.69126  0.93840  Biso   1.000  H 
  B232     1.0000 0.92810  0.13260  0.00000  Biso   1.000  B 
  B233     1.0000 0.88280  0.11720  0.00000  Biso   1.000  B 
  B234     1.0000 0.86740  0.07190  0.00000  Biso   1.000  B 
  B235     1.0000 0.84350  0.15650  0.00000  Biso   1.000  B 
  B236     1.0000 0.85530  0.20580  0.00000  Biso   1.000  B 
  B237     1.0000 0.79420  0.14470  0.00000  Biso   1.000  B 
  B238     1.0000 0.82050  0.24200  0.00000  Biso   1.000  B 
  B239     1.0000 0.88860  0.21490  0.00000  Biso   1.000  B 
  B240     1.0000 0.75800  0.17950  0.00000  Biso   1.000  B 
  B241     1.0000 0.78510  0.11140  0.00000  Biso   1.000  B 
  B242     1.0000 0.76930  0.23070  0.00000  Biso   1.000  B 
  B243     1.0000 0.73070  0.26930  0.00000  Biso   1.000  B 
  B244     1.0000 0.83050  0.27510  0.00000  Biso   1.000  B 
  B245     1.0000 0.74200  0.32050  0.00000  Biso   1.000  B 
  B246     1.0000 0.72490  0.16950  0.00000  Biso   1.000  B 
  B247     1.0000 0.67950  0.25800  0.00000  Biso   1.000  B 
  B248     1.0000 0.70580  0.35530  0.00000  Biso   1.000  B 
  N8       1.0000 0.79395  0.34061  0.98850  Biso   1.000  N 
  B249     1.0000 0.64470  0.29420  0.00000  Biso   1.000  B 
  B250     1.0000 0.66950  0.22490  0.00000  Biso   1.000  B 
  B251     1.0000 0.65650  0.34350  0.00000  Biso   1.000  B 
  B252     1.0000 0.61720  0.38280  0.00000  Biso   1.000  B 
  B253     1.0000 0.71490  0.38860  0.00000  Biso   1.000  B 
  B254     1.0000 0.61140  0.28510  0.00000  Biso   1.000  B 
  B255     1.0000 0.63260  0.42810  0.00000  Biso   1.000  B 
  B256     1.0000 0.57190  0.36740  0.00000  Biso   1.000  B 
  H85      1.0000 0.79074  0.36511  0.95842  Biso   1.000  H 
  C43      1.0000 0.81467  0.36658  0.03202  Biso   1.000  C 
  C44      1.0000 0.85760  0.40137  0.01787  Biso   1.000  C 
  H86      1.0000 0.88913  0.37950  0.00227  Biso   1.000  H 
  C45      1.0000 0.87457  0.43163  0.06425  Biso   1.000  C 
  H87      1.0000 0.84380  0.42812  0.98953  Biso   1.000  H 
  C46      1.0000 0.89142  0.39728  0.10709  Biso   1.000  C 
  H88      1.0000 0.84412  0.45682  0.07630  Biso   1.000  H 
  H89      1.0000 0.90662  0.45520  0.05302  Biso   1.000  H 
  C47      1.0000 0.83280  0.33119  0.07465  Biso   1.000  C 
  C48      1.0000 0.84898  0.36235  0.12106  Biso   1.000  C 
  H90      1.0000 0.80189  0.30592  0.08683  Biso   1.000  H 
  H91      1.0000 0.78587  0.39105  0.04829  Biso   1.000  H 
  H92      1.0000 0.86201  0.33706  0.15089  Biso   1.000  H 
  H93      1.0000 0.81727  0.38514  0.13528  Biso   1.000  H 
  H94      1.0000 0.90097  0.42043  0.13979  Biso   1.000  H 
  H95      1.0000 0.92531  0.37687  0.09512  Biso   1.000  H 
  H96      1.0000 0.86527  0.30874  0.06160  Biso   1.000  H 
  B257     1.0000 0.00000  0.07190  0.13260  Biso   1.000  B 
  B258     1.0000 0.00000  0.11720  0.11720  Biso   1.000  B 
  B259     1.0000 0.00000  0.13260  0.07190  Biso   1.000  B 
  B260     1.0000 0.00000  0.15650  0.15650  Biso   1.000  B 
  B261     1.0000 0.00000  0.14470  0.20580  Biso   1.000  B 
  B262     1.0000 0.00000  0.20580  0.14470  Biso   1.000  B 
  B263     1.0000 0.00000  0.17950  0.24200  Biso   1.000  B 
  B264     1.0000 0.00000  0.11140  0.21490  Biso   1.000  B 
  B265     1.0000 0.00000  0.24200  0.17950  Biso   1.000  B 
  B266     1.0000 0.00000  0.21490  0.11140  Biso   1.000  B 
  B267     1.0000 0.00000  0.23070  0.23070  Biso   1.000  B 
  B268     1.0000 0.00000  0.26930  0.26930  Biso   1.000  B 
  B269     1.0000 0.00000  0.16950  0.27510  Biso   1.000  B 
  B270     1.0000 0.00000  0.25800  0.32050  Biso   1.000  B 
  B271     1.0000 0.00000  0.27510  0.16950  Biso   1.000  B 
  B272     1.0000 0.00000  0.32050  0.25800  Biso   1.000  B 
  B273     1.0000 0.00000  0.29420  0.35530  Biso   1.000  B 
  N9       1.0000 0.00822  0.20603  0.34141  Biso   1.000  N 
  B274     1.0000 0.00000  0.35530  0.29420  Biso   1.000  B 
  B275     1.0000 0.00000  0.33050  0.22490  Biso   1.000  B 
  B276     1.0000 0.00000  0.34350  0.34350  Biso   1.000  B 
  B277     1.0000 0.00000  0.38280  0.38280  Biso   1.000  B 
  B278     1.0000 0.00000  0.28510  0.38860  Biso   1.000  B 
  B279     1.0000 0.00000  0.38860  0.28510  Biso   1.000  B 
  B280     1.0000 0.00000  0.36740  0.42810  Biso   1.000  B 
  B281     1.0000 0.00000  0.42810  0.36740  Biso   1.000  B 
  H97      1.0000 0.03860  0.20497  0.36560  Biso   1.000  H 
  C49      1.0000 0.96044  0.18336  0.35997  Biso   1.000  C 
  C50      1.0000 0.96441  0.18021  0.41602  Biso   1.000  C 
  H98      1.0000 0.00084  0.16502  0.42635  Biso   1.000  H 
  C51      1.0000 0.93020  0.14623  0.44639  Biso   1.000  C 
  H99      1.0000 0.96077  0.21793  0.43154  Biso   1.000  H 
  C52      1.0000 0.91802  0.09512  0.42266  Biso   1.000  C 
  H100     1.0000 0.89546  0.16695  0.44778  Biso   1.000  H 
  H101     1.0000 0.94391  0.14173  0.48609  Biso   1.000  H 
  C53      1.0000 0.94777  0.13104  0.33766  Biso   1.000  C 
  C54      1.0000 0.90911  0.09579  0.36519  Biso   1.000  C 
  H102     1.0000 0.93224  0.13735  0.30012  Biso   1.000  H 
  H103     1.0000 0.92950  0.20871  0.35012  Biso   1.000  H 
  H104     1.0000 0.91034  0.05784  0.34883  Biso   1.000  H 
  H105     1.0000 0.87286  0.11083  0.35580  Biso   1.000  H 
  H106     1.0000 0.88593  0.07609  0.44153  Biso   1.000  H 
  H107     1.0000 0.95197  0.07339  0.43022  Biso   1.000  H 
  H108     1.0000 0.98337  0.11010  0.33381  Biso   1.000  H 
  B282     1.0000 0.00000  0.07190  0.86740  Biso   1.000  B 
  B283     1.0000 0.00000  0.11720  0.88280  Biso   1.000  B 
  B284     1.0000 0.00000  0.13260  0.92810  Biso   1.000  B 
  B285     1.0000 0.00000  0.15650  0.84350  Biso   1.000  B 
  B286     1.0000 0.00000  0.14470  0.79420  Biso   1.000  B 
  B287     1.0000 0.00000  0.20580  0.85530  Biso   1.000  B 
  B288     1.0000 0.00000  0.17950  0.75800  Biso   1.000  B 
  B289     1.0000 0.00000  0.11140  0.78510  Biso   1.000  B 
  B290     1.0000 0.00000  0.24200  0.82050  Biso   1.000  B 
  B291     1.0000 0.00000  0.21490  0.88860  Biso   1.000  B 
  B292     1.0000 0.00000  0.23070  0.76930  Biso   1.000  B 
  B293     1.0000 0.00000  0.26930  0.73070  Biso   1.000  B 
  B294     1.0000 0.00000  0.16950  0.72490  Biso   1.000  B 
  B295     1.0000 0.00000  0.25800  0.67950  Biso   1.000  B 
  B296     1.0000 0.00000  0.27510  0.83050  Biso   1.000  B 
  B297     1.0000 0.00000  0.32050  0.74200  Biso   1.000  B 
  B298     1.0000 0.00000  0.29420  0.64470  Biso   1.000  B 
  N10      1.0000 0.99178  0.20603  0.65859  Biso   1.000  N 
  B299     1.0000 0.00000  0.35530  0.70580  Biso   1.000  B 
  B300     1.0000 0.00000  0.33050  0.77510  Biso   1.000  B 
  B301     1.0000 0.00000  0.34350  0.65650  Biso   1.000  B 
  B302     1.0000 0.00000  0.38280  0.61720  Biso   1.000  B 
  B303     1.0000 0.00000  0.28510  0.61140  Biso   1.000  B 
  B304     1.0000 0.00000  0.38860  0.71490  Biso   1.000  B 
  B305     1.0000 0.00000  0.36740  0.57190  Biso   1.000  B 
  B306     1.0000 0.00000  0.42810  0.63260  Biso   1.000  B 
  H109     1.0000 0.96140  0.20497  0.63440  Biso   1.000  H 
  C55      1.0000 0.03956  0.18336  0.64003  Biso   1.000  C 
  C56      1.0000 0.03559  0.18021  0.58398  Biso   1.000  C 
  H110     1.0000 0.99916  0.16502  0.57365  Biso   1.000  H 
  C57      1.0000 0.06980  0.14623  0.55361  Biso   1.000  C 
  H111     1.0000 0.03922  0.21793  0.56846  Biso   1.000  H 
  C58      1.0000 0.08197  0.09512  0.57734  Biso   1.000  C 
  H112     1.0000 0.10454  0.16695  0.55222  Biso   1.000  H 
  H113     1.0000 0.05609  0.14173  0.51391  Biso   1.000  H 
  C59      1.0000 0.05223  0.13104  0.66234  Biso   1.000  C 
  C60      1.0000 0.09090  0.09579  0.63480  Biso   1.000  C 
  H114     1.0000 0.06776  0.13735  0.69988  Biso   1.000  H 
  H115     1.0000 0.07050  0.20871  0.64988  Biso   1.000  H 
  H116     1.0000 0.08967  0.05784  0.65117  Biso   1.000  H 
  H117     1.0000 0.12714  0.11083  0.64420  Biso   1.000  H 
  H118     1.0000 0.11407  0.07609  0.55847  Biso   1.000  H 
  H119     1.0000 0.04802  0.07339  0.56978  Biso   1.000  H 
  H120     1.0000 0.01663  0.11010  0.66620  Biso   1.000  H 
  B307     1.0000 0.00000  0.92810  0.86740  Biso   1.000  B 
  B308     1.0000 0.00000  0.88280  0.88280  Biso   1.000  B 
  B309     1.0000 0.00000  0.86740  0.92810  Biso   1.000  B 
  B310     1.0000 0.00000  0.84350  0.84350  Biso   1.000  B 
  B311     1.0000 0.00000  0.85530  0.79420  Biso   1.000  B 
  B312     1.0000 0.00000  0.79420  0.85530  Biso   1.000  B 
  B313     1.0000 0.00000  0.82050  0.75800  Biso   1.000  B 
  B314     1.0000 0.00000  0.88860  0.78510  Biso   1.000  B 
  B315     1.0000 0.00000  0.75800  0.82050  Biso   1.000  B 
  B316     1.0000 0.00000  0.78510  0.88860  Biso   1.000  B 
  B317     1.0000 0.00000  0.76930  0.76930  Biso   1.000  B 
  B318     1.0000 0.00000  0.73070  0.73070  Biso   1.000  B 
  B319     1.0000 0.00000  0.83050  0.72490  Biso   1.000  B 
  B320     1.0000 0.00000  0.74200  0.67950  Biso   1.000  B 
  B321     1.0000 0.00000  0.72490  0.83050  Biso   1.000  B 
  B322     1.0000 0.00000  0.67950  0.74200  Biso   1.000  B 
  B323     1.0000 0.00000  0.70580  0.64470  Biso   1.000  B 
  N11      1.0000 0.00822  0.79397  0.65859  Biso   1.000  N 
  B324     1.0000 0.00000  0.64470  0.70580  Biso   1.000  B 
  B325     1.0000 0.00000  0.66950  0.77510  Biso   1.000  B 
  B326     1.0000 0.00000  0.65650  0.65650  Biso   1.000  B 
  B327     1.0000 0.00000  0.61720  0.61720  Biso   1.000  B 
  B328     1.0000 0.00000  0.71490  0.61140  Biso   1.000  B 
  B329     1.0000 0.00000  0.61140  0.71490  Biso   1.000  B 
  B330     1.0000 0.00000  0.63260  0.57190  Biso   1.000  B 
  B331     1.0000 0.00000  0.57190  0.63260  Biso   1.000  B 
  H121     1.0000 0.03860  0.79503  0.63440  Biso   1.000  H 
  C61      1.0000 0.96044  0.81664  0.64003  Biso   1.000  C 
  C62      1.0000 0.96441  0.81979  0.58398  Biso   1.000  C 
  H122     1.0000 0.00084  0.83498  0.57365  Biso   1.000  H 
  C63      1.0000 0.93020  0.85377  0.55361  Biso   1.000  C 
  H123     1.0000 0.96077  0.78207  0.56846  Biso   1.000  H 
  C64      1.0000 0.91802  0.90487  0.57734  Biso   1.000  C 
  H124     1.0000 0.89546  0.83305  0.55222  Biso   1.000  H 
  H125     1.0000 0.94391  0.85827  0.51391  Biso   1.000  H 
  C65      1.0000 0.94777  0.86896  0.66234  Biso   1.000  C 
  C66      1.0000 0.90911  0.90421  0.63480  Biso   1.000  C 
  H126     1.0000 0.93224  0.86265  0.69988  Biso   1.000  H 
  H127     1.0000 0.92950  0.79129  0.64988  Biso   1.000  H 
  H128     1.0000 0.91034  0.94216  0.65117  Biso   1.000  H 
  H129     1.0000 0.87286  0.88917  0.64420  Biso   1.000  H 
  H130     1.0000 0.88593  0.92391  0.55847  Biso   1.000  H 
  H131     1.0000 0.95197  0.92661  0.56978  Biso   1.000  H 
  H132     1.0000 0.98337  0.88990  0.66620  Biso   1.000  H 
  B332     1.0000 0.00000  0.92810  0.13260  Biso   1.000  B 
  B333     1.0000 0.00000  0.88280  0.11720  Biso   1.000  B 
  B334     1.0000 0.00000  0.86740  0.07190  Biso   1.000  B 
  B335     1.0000 0.00000  0.84350  0.15650  Biso   1.000  B 
  B336     1.0000 0.00000  0.85530  0.20580  Biso   1.000  B 
  B337     1.0000 0.00000  0.79420  0.14470  Biso   1.000  B 
  B338     1.0000 0.00000  0.82050  0.24200  Biso   1.000  B 
  B339     1.0000 0.00000  0.88860  0.21490  Biso   1.000  B 
  B340     1.0000 0.00000  0.75800  0.17950  Biso   1.000  B 
  B341     1.0000 0.00000  0.78510  0.11140  Biso   1.000  B 
  B342     1.0000 0.00000  0.76930  0.23070  Biso   1.000  B 
  B343     1.0000 0.00000  0.73070  0.26930  Biso   1.000  B 
  B344     1.0000 0.00000  0.83050  0.27510  Biso   1.000  B 
  B345     1.0000 0.00000  0.74200  0.32050  Biso   1.000  B 
  B346     1.0000 0.00000  0.72490  0.16950  Biso   1.000  B 
  B347     1.0000 0.00000  0.67950  0.25800  Biso   1.000  B 
  B348     1.0000 0.00000  0.70580  0.35530  Biso   1.000  B 
  N12      1.0000 0.99178  0.79397  0.34141  Biso   1.000  N 
  B349     1.0000 0.00000  0.64470  0.29420  Biso   1.000  B 
  B350     1.0000 0.00000  0.66950  0.22490  Biso   1.000  B 
  B351     1.0000 0.00000  0.65650  0.34350  Biso   1.000  B 
  B352     1.0000 0.00000  0.61720  0.38280  Biso   1.000  B 
  B353     1.0000 0.00000  0.71490  0.38860  Biso   1.000  B 
  B354     1.0000 0.00000  0.61140  0.28510  Biso   1.000  B 
  B355     1.0000 0.00000  0.63260  0.42810  Biso   1.000  B 
  B356     1.0000 0.00000  0.57190  0.36740  Biso   1.000  B 
  H133     1.0000 0.96140  0.79503  0.36560  Biso   1.000  H 
  C67      1.0000 0.03956  0.81664  0.35997  Biso   1.000  C 
  C68      1.0000 0.03559  0.81979  0.41602  Biso   1.000  C 
  H134     1.0000 0.99916  0.83498  0.42635  Biso   1.000  H 
  C69      1.0000 0.06980  0.85377  0.44639  Biso   1.000  C 
  H135     1.0000 0.03922  0.78207  0.43154  Biso   1.000  H 
  C70      1.0000 0.08197  0.90487  0.42266  Biso   1.000  C 
  H136     1.0000 0.10454  0.83305  0.44778  Biso   1.000  H 
  H137     1.0000 0.05609  0.85827  0.48609  Biso   1.000  H 
  C71      1.0000 0.05223  0.86896  0.33766  Biso   1.000  C 
  C72      1.0000 0.09090  0.90421  0.36519  Biso   1.000  C 
  H138     1.0000 0.06776  0.86265  0.30012  Biso   1.000  H 
  H139     1.0000 0.07050  0.79129  0.35012  Biso   1.000  H 
  H140     1.0000 0.08967  0.94216  0.34883  Biso   1.000  H 
  H141     1.0000 0.12714  0.88917  0.35580  Biso   1.000  H 
  H142     1.0000 0.11407  0.92391  0.44153  Biso   1.000  H 
  H143     1.0000 0.04802  0.92661  0.43022  Biso   1.000  H 
  H144     1.0000 0.01663  0.88990  0.33381  Biso   1.000  H 
  B357     1.0000 0.13260  0.50000  0.57190  Biso   1.000  B 
  B358     1.0000 0.11720  0.50000  0.61720  Biso   1.000  B 
  B359     1.0000 0.07190  0.50000  0.63260  Biso   1.000  B 
  B360     1.0000 0.15650  0.50000  0.65650  Biso   1.000  B 
  B361     1.0000 0.20580  0.50000  0.64470  Biso   1.000  B 
  B362     1.0000 0.14470  0.50000  0.70580  Biso   1.000  B 
  B363     1.0000 0.24200  0.50000  0.67950  Biso   1.000  B 
  B364     1.0000 0.21490  0.50000  0.61140  Biso   1.000  B 
  B365     1.0000 0.17950  0.50000  0.74200  Biso   1.000  B 
  B366     1.0000 0.11140  0.50000  0.71490  Biso   1.000  B 
  B367     1.0000 0.23070  0.50000  0.73070  Biso   1.000  B 
  B368     1.0000 0.26930  0.50000  0.76930  Biso   1.000  B 
  B369     1.0000 0.27510  0.50000  0.66950  Biso   1.000  B 
  B370     1.0000 0.32050  0.50000  0.75800  Biso   1.000  B 
  B371     1.0000 0.16950  0.50000  0.77510  Biso   1.000  B 
  B372     1.0000 0.25800  0.50000  0.82050  Biso   1.000  B 
  B373     1.0000 0.35530  0.50000  0.79420  Biso   1.000  B 
  N13      1.0000 0.34185  0.49176  0.70535  Biso   1.000  N 
  B374     1.0000 0.29420  0.50000  0.85530  Biso   1.000  B 
  B375     1.0000 0.22490  0.50000  0.83050  Biso   1.000  B 
  B376     1.0000 0.34350  0.50000  0.84350  Biso   1.000  B 
  B377     1.0000 0.38280  0.50000  0.88280  Biso   1.000  B 
  B378     1.0000 0.38860  0.50000  0.78510  Biso   1.000  B 
  B379     1.0000 0.28510  0.50000  0.88860  Biso   1.000  B 
  B380     1.0000 0.42810  0.50000  0.86740  Biso   1.000  B 
  B381     1.0000 0.36740  0.50000  0.92810  Biso   1.000  B 
  H145     1.0000 0.36555  0.52141  0.69703  Biso   1.000  H 
  C73      1.0000 0.36515  0.44249  0.69175  Biso   1.000  C 
  C74      1.0000 0.41853  0.44733  0.66742  Biso   1.000  C 
  H146     1.0000 0.41661  0.47534  0.63704  Biso   1.000  H 
  C75      1.0000 0.43870  0.39846  0.64318  Biso   1.000  C 
  H147     1.0000 0.44593  0.45990  0.69578  Biso   1.000  H 
  C76      1.0000 0.40163  0.37211  0.60802  Biso   1.000  C 
  H148     1.0000 0.44754  0.37155  0.67316  Biso   1.000  H 
  H149     1.0000 0.47369  0.40751  0.62364  Biso   1.000  H 
  C77      1.0000 0.33046  0.41569  0.65424  Biso   1.000  C 
  C78      1.0000 0.35149  0.36507  0.63561  Biso   1.000  C 
  H150     1.0000 0.29393  0.40951  0.67283  Biso   1.000  H 
  H151     1.0000 0.37007  0.41945  0.72568  Biso   1.000  H 
  H152     1.0000 0.32309  0.34606  0.61235  Biso   1.000  H 
  H153     1.0000 0.35969  0.34146  0.66888  Biso   1.000  H 
  H154     1.0000 0.41751  0.33625  0.59533  Biso   1.000  H 
  H155     1.0000 0.39645  0.39627  0.57503  Biso   1.000  H 
  H156     1.0000 0.32573  0.44070  0.62172  Biso   1.000  H 
  B382     1.0000 0.86740  0.50000  0.57190  Biso   1.000  B 
  B383     1.0000 0.88280  0.50000  0.61720  Biso   1.000  B 
  B384     1.0000 0.92810  0.50000  0.63260  Biso   1.000  B 
  B385     1.0000 0.84350  0.50000  0.65650  Biso   1.000  B 
  B386     1.0000 0.79420  0.50000  0.64470  Biso   1.000  B 
  B387     1.0000 0.85530  0.50000  0.70580  Biso   1.000  B 
  B388     1.0000 0.75800  0.50000  0.67950  Biso   1.000  B 
  B389     1.0000 0.78510  0.50000  0.61140  Biso   1.000  B 
  B390     1.0000 0.82050  0.50000  0.74200  Biso   1.000  B 
  B391     1.0000 0.88860  0.50000  0.71490  Biso   1.000  B 
  B392     1.0000 0.76930  0.50000  0.73070  Biso   1.000  B 
  B393     1.0000 0.73070  0.50000  0.76930  Biso   1.000  B 
  B394     1.0000 0.72490  0.50000  0.66950  Biso   1.000  B 
  B395     1.0000 0.67950  0.50000  0.75800  Biso   1.000  B 
  B396     1.0000 0.83050  0.50000  0.77510  Biso   1.000  B 
  B397     1.0000 0.74200  0.50000  0.82050  Biso   1.000  B 
  B398     1.0000 0.64470  0.50000  0.79420  Biso   1.000  B 
  N14      1.0000 0.65815  0.50824  0.70535  Biso   1.000  N 
  B399     1.0000 0.70580  0.50000  0.85530  Biso   1.000  B 
  B400     1.0000 0.77510  0.50000  0.83050  Biso   1.000  B 
  B401     1.0000 0.65650  0.50000  0.84350  Biso   1.000  B 
  B402     1.0000 0.61720  0.50000  0.88280  Biso   1.000  B 
  B403     1.0000 0.61140  0.50000  0.78510  Biso   1.000  B 
  B404     1.0000 0.71490  0.50000  0.88860  Biso   1.000  B 
  B405     1.0000 0.57190  0.50000  0.86740  Biso   1.000  B 
  B406     1.0000 0.63260  0.50000  0.92810  Biso   1.000  B 
  H157     1.0000 0.63445  0.47859  0.69703  Biso   1.000  H 
  C79      1.0000 0.63485  0.55751  0.69175  Biso   1.000  C 
  C80      1.0000 0.58147  0.55267  0.66742  Biso   1.000  C 
  H158     1.0000 0.58339  0.52466  0.63704  Biso   1.000  H 
  C81      1.0000 0.56130  0.60154  0.64318  Biso   1.000  C 
  H159     1.0000 0.55407  0.54010  0.69578  Biso   1.000  H 
  C82      1.0000 0.59837  0.62789  0.60802  Biso   1.000  C 
  H160     1.0000 0.55246  0.62845  0.67316  Biso   1.000  H 
  H161     1.0000 0.52631  0.59249  0.62364  Biso   1.000  H 
  C83      1.0000 0.66954  0.58431  0.65424  Biso   1.000  C 
  C84      1.0000 0.64851  0.63493  0.63561  Biso   1.000  C 
  H162     1.0000 0.70608  0.59049  0.67283  Biso   1.000  H 
  H163     1.0000 0.62993  0.58055  0.72568  Biso   1.000  H 
  H164     1.0000 0.67691  0.65394  0.61235  Biso   1.000  H 
  H165     1.0000 0.64031  0.65854  0.66888  Biso   1.000  H 
  H166     1.0000 0.58249  0.66375  0.59533  Biso   1.000  H 
  H167     1.0000 0.60355  0.60373  0.57503  Biso   1.000  H 
  H168     1.0000 0.67427  0.55930  0.62172  Biso   1.000  H 
  B407     1.0000 0.86740  0.50000  0.42810  Biso   1.000  B 
  B408     1.0000 0.88280  0.50000  0.38280  Biso   1.000  B 
  B409     1.0000 0.92810  0.50000  0.36740  Biso   1.000  B 
  B410     1.0000 0.84350  0.50000  0.34350  Biso   1.000  B 
  B411     1.0000 0.79420  0.50000  0.35530  Biso   1.000  B 
  B412     1.0000 0.85530  0.50000  0.29420  Biso   1.000  B 
  B413     1.0000 0.75800  0.50000  0.32050  Biso   1.000  B 
  B414     1.0000 0.78510  0.50000  0.38860  Biso   1.000  B 
  B415     1.0000 0.82050  0.50000  0.25800  Biso   1.000  B 
  B416     1.0000 0.88860  0.50000  0.28510  Biso   1.000  B 
  B417     1.0000 0.76930  0.50000  0.26930  Biso   1.000  B 
  B418     1.0000 0.73070  0.50000  0.23070  Biso   1.000  B 
  B419     1.0000 0.72490  0.50000  0.33050  Biso   1.000  B 
  B420     1.0000 0.67950  0.50000  0.24200  Biso   1.000  B 
  B421     1.0000 0.83050  0.50000  0.22490  Biso   1.000  B 
  B422     1.0000 0.74200  0.50000  0.17950  Biso   1.000  B 
  B423     1.0000 0.64470  0.50000  0.20580  Biso   1.000  B 
  N15      1.0000 0.65815  0.49176  0.29465  Biso   1.000  N 
  B424     1.0000 0.70580  0.50000  0.14470  Biso   1.000  B 
  B425     1.0000 0.77510  0.50000  0.16950  Biso   1.000  B 
  B426     1.0000 0.65650  0.50000  0.15650  Biso   1.000  B 
  B427     1.0000 0.61720  0.50000  0.11720  Biso   1.000  B 
  B428     1.0000 0.61140  0.50000  0.21490  Biso   1.000  B 
  B429     1.0000 0.71490  0.50000  0.11140  Biso   1.000  B 
  B430     1.0000 0.57190  0.50000  0.13260  Biso   1.000  B 
  B431     1.0000 0.63260  0.50000  0.07190  Biso   1.000  B 
  H169     1.0000 0.63445  0.52141  0.30297  Biso   1.000  H 
  C85      1.0000 0.63485  0.44249  0.30825  Biso   1.000  C 
  C86      1.0000 0.58147  0.44733  0.33258  Biso   1.000  C 
  H170     1.0000 0.58339  0.47534  0.36296  Biso   1.000  H 
  C87      1.0000 0.56130  0.39846  0.35682  Biso   1.000  C 
  H171     1.0000 0.55407  0.45990  0.30422  Biso   1.000  H 
  C88      1.0000 0.59837  0.37211  0.39198  Biso   1.000  C 
  H172     1.0000 0.55246  0.37155  0.32684  Biso   1.000  H 
  H173     1.0000 0.52631  0.40751  0.37636  Biso   1.000  H 
  C89      1.0000 0.66954  0.41569  0.34576  Biso   1.000  C 
  C90      1.0000 0.64851  0.36507  0.36439  Biso   1.000  C 
  H174     1.0000 0.70608  0.40951  0.32717  Biso   1.000  H 
  H175     1.0000 0.62993  0.41945  0.27432  Biso   1.000  H 
  H176     1.0000 0.67691  0.34606  0.38765  Biso   1.000  H 
  H177     1.0000 0.64031  0.34146  0.33112  Biso   1.000  H 
  H178     1.0000 0.58249  0.33625  0.40467  Biso   1.000  H 
  H179     1.0000 0.60355  0.39627  0.42497  Biso   1.000  H 
  H180     1.0000 0.67427  0.44070  0.37828  Biso   1.000  H 
  B432     1.0000 0.13260  0.50000  0.42810  Biso   1.000  B 
  B433     1.0000 0.11720  0.50000  0.38280  Biso   1.000  B 
  B434     1.0000 0.07190  0.50000  0.36740  Biso   1.000  B 
  B435     1.0000 0.15650  0.50000  0.34350  Biso   1.000  B 
  B436     1.0000 0.20580  0.50000  0.35530  Biso   1.000  B 
  B437     1.0000 0.14470  0.50000  0.29420  Biso   1.000  B 
  B438     1.0000 0.24200  0.50000  0.32050  Biso   1.000  B 
  B439     1.0000 0.21490  0.50000  0.38860  Biso   1.000  B 
  B440     1.0000 0.17950  0.50000  0.25800  Biso   1.000  B 
  B441     1.0000 0.11140  0.50000  0.28510  Biso   1.000  B 
  B442     1.0000 0.23070  0.50000  0.26930  Biso   1.000  B 
  B443     1.0000 0.26930  0.50000  0.23070  Biso   1.000  B 
  B444     1.0000 0.27510  0.50000  0.33050  Biso   1.000  B 
  B445     1.0000 0.32050  0.50000  0.24200  Biso   1.000  B 
  B446     1.0000 0.16950  0.50000  0.22490  Biso   1.000  B 
  B447     1.0000 0.25800  0.50000  0.17950  Biso   1.000  B 
  B448     1.0000 0.35530  0.50000  0.20580  Biso   1.000  B 
  N16      1.0000 0.34185  0.50824  0.29465  Biso   1.000  N 
  B449     1.0000 0.29420  0.50000  0.14470  Biso   1.000  B 
  B450     1.0000 0.22490  0.50000  0.16950  Biso   1.000  B 
  B451     1.0000 0.34350  0.50000  0.15650  Biso   1.000  B 
  B452     1.0000 0.38280  0.50000  0.11720  Biso   1.000  B 
  B453     1.0000 0.38860  0.50000  0.21490  Biso   1.000  B 
  B454     1.0000 0.28510  0.50000  0.11140  Biso   1.000  B 
  B455     1.0000 0.42810  0.50000  0.13260  Biso   1.000  B 
  B456     1.0000 0.36740  0.50000  0.07190  Biso   1.000  B 
  H181     1.0000 0.36555  0.47859  0.30297  Biso   1.000  H 
  C91      1.0000 0.36515  0.55751  0.30825  Biso   1.000  C 
  C92      1.0000 0.41853  0.55267  0.33258  Biso   1.000  C 
  H182     1.0000 0.41661  0.52466  0.36296  Biso   1.000  H 
  C93      1.0000 0.43870  0.60154  0.35682  Biso   1.000  C 
  H183     1.0000 0.44593  0.54010  0.30422  Biso   1.000  H 
  C94      1.0000 0.40163  0.62789  0.39198  Biso   1.000  C 
  H184     1.0000 0.44754  0.62845  0.32684  Biso   1.000  H 
  H185     1.0000 0.47369  0.59249  0.37636  Biso   1.000  H 
  C95      1.0000 0.33046  0.58431  0.34576  Biso   1.000  C 
  C96      1.0000 0.35149  0.63493  0.36439  Biso   1.000  C 
  H186     1.0000 0.29393  0.59049  0.32717  Biso   1.000  H 
  H187     1.0000 0.37007  0.58055  0.27432  Biso   1.000  H 
  H188     1.0000 0.32309  0.65394  0.38765  Biso   1.000  H 
  H189     1.0000 0.35969  0.65854  0.33112  Biso   1.000  H 
  H190     1.0000 0.41751  0.66375  0.40467  Biso   1.000  H 
  H191     1.0000 0.39645  0.60373  0.42497  Biso   1.000  H 
  H192     1.0000 0.32573  0.55930  0.37828  Biso   1.000  H 
  B457     1.0000 0.07190  0.63260  0.50000  Biso   1.000  B 
  B458     1.0000 0.11720  0.61720  0.50000  Biso   1.000  B 
  B459     1.0000 0.13260  0.57190  0.50000  Biso   1.000  B 
  B460     1.0000 0.15650  0.65650  0.50000  Biso   1.000  B 
  B461     1.0000 0.14470  0.70580  0.50000  Biso   1.000  B 
  B462     1.0000 0.20580  0.64470  0.50000  Biso   1.000  B 
  B463     1.0000 0.17950  0.74200  0.50000  Biso   1.000  B 
  B464     1.0000 0.11140  0.71490  0.50000  Biso   1.000  B 
  B465     1.0000 0.24200  0.67950  0.50000  Biso   1.000  B 
  B466     1.0000 0.21490  0.61140  0.50000  Biso   1.000  B 
  B467     1.0000 0.23070  0.73070  0.50000  Biso   1.000  B 
  B468     1.0000 0.26930  0.76930  0.50000  Biso   1.000  B 
  B469     1.0000 0.16950  0.77510  0.50000  Biso   1.000  B 
  B470     1.0000 0.25800  0.82050  0.50000  Biso   1.000  B 
  B471     1.0000 0.27510  0.66950  0.50000  Biso   1.000  B 
  B472     1.0000 0.32050  0.75800  0.50000  Biso   1.000  B 
  B473     1.0000 0.29420  0.85530  0.50000  Biso   1.000  B 
  N17      1.0000 0.20783  0.83928  0.47622  Biso   1.000  N 
  B474     1.0000 0.35530  0.79420  0.50000  Biso   1.000  B 
  B475     1.0000 0.33050  0.72490  0.50000  Biso   1.000  B 
  B476     1.0000 0.34350  0.84350  0.50000  Biso   1.000  B 
  B477     1.0000 0.38280  0.88280  0.50000  Biso   1.000  B 
  B478     1.0000 0.28510  0.88860  0.50000  Biso   1.000  B 
  B479     1.0000 0.38860  0.78510  0.50000  Biso   1.000  B 
  B480     1.0000 0.36740  0.92810  0.50000  Biso   1.000  B 
  B481     1.0000 0.42810  0.86740  0.50000  Biso   1.000  B 
  H193     1.0000 0.19620  0.87246  0.49299  Biso   1.000  H 
  C97      1.0000 0.20169  0.83910  0.42121  Biso   1.000  C 
  C98      1.0000 0.18499  0.78910  0.40214  Biso   1.000  C 
  H194     1.0000 0.21263  0.76073  0.41111  Biso   1.000  H 
  C99      1.0000 0.18038  0.78708  0.34592  Biso   1.000  C 
  H195     1.0000 0.14884  0.77823  0.41768  Biso   1.000  H 
  C100     1.0000 0.22317  0.80638  0.31207  Biso   1.000  C 
  H196     1.0000 0.14843  0.81118  0.33617  Biso   1.000  H 
  H197     1.0000 0.17112  0.74829  0.33549  Biso   1.000  H 
  C101     1.0000 0.24863  0.85149  0.39328  Biso   1.000  C 
  C102     1.0000 0.24375  0.85438  0.33603  Biso   1.000  C 
  H198     1.0000 0.26399  0.88746  0.40818  Biso   1.000  H 
  H199     1.0000 0.17572  0.86759  0.41131  Biso   1.000  H 
  H200     1.0000 0.28108  0.86327  0.32043  Biso   1.000  H 
  H201     1.0000 0.21785  0.88412  0.32490  Biso   1.000  H 
  H202     1.0000 0.20555  0.81643  0.27554  Biso   1.000  H 
  H203     1.0000 0.25177  0.77721  0.30579  Biso   1.000  H 
  H204     1.0000 0.27783  0.82254  0.39956  Biso   1.000  H 
  B482     1.0000 0.07190  0.36740  0.50000  Biso   1.000  B 
  B483     1.0000 0.11720  0.38280  0.50000  Biso   1.000  B 
  B484     1.0000 0.13260  0.42810  0.50000  Biso   1.000  B 
  B485     1.0000 0.15650  0.34350  0.50000  Biso   1.000  B 
  B486     1.0000 0.14470  0.29420  0.50000  Biso   1.000  B 
  B487     1.0000 0.20580  0.35530  0.50000  Biso   1.000  B 
  B488     1.0000 0.17950  0.25800  0.50000  Biso   1.000  B 
  B489     1.0000 0.11140  0.28510  0.50000  Biso   1.000  B 
  B490     1.0000 0.24200  0.32050  0.50000  Biso   1.000  B 
  B491     1.0000 0.21490  0.38860  0.50000  Biso   1.000  B 
  B492     1.0000 0.23070  0.26930  0.50000  Biso   1.000  B 
  B493     1.0000 0.26930  0.23070  0.50000  Biso   1.000  B 
  B494     1.0000 0.16950  0.22490  0.50000  Biso   1.000  B 
  B495     1.0000 0.25800  0.17950  0.50000  Biso   1.000  B 
  B496     1.0000 0.27510  0.33050  0.50000  Biso   1.000  B 
  B497     1.0000 0.32050  0.24200  0.50000  Biso   1.000  B 
  B498     1.0000 0.29420  0.14470  0.50000  Biso   1.000  B 
  N18      1.0000 0.20783  0.16072  0.52378  Biso   1.000  N 
  B499     1.0000 0.35530  0.20580  0.50000  Biso   1.000  B 
  B500     1.0000 0.33050  0.27510  0.50000  Biso   1.000  B 
  B501     1.0000 0.34350  0.15650  0.50000  Biso   1.000  B 
  B502     1.0000 0.38280  0.11720  0.50000  Biso   1.000  B 
  B503     1.0000 0.28510  0.11140  0.50000  Biso   1.000  B 
  B504     1.0000 0.38860  0.21490  0.50000  Biso   1.000  B 
  B505     1.0000 0.36740  0.07190  0.50000  Biso   1.000  B 
  B506     1.0000 0.42810  0.13260  0.50000  Biso   1.000  B 
  H205     1.0000 0.19620  0.12754  0.50701  Biso   1.000  H 
  C103     1.0000 0.20169  0.16090  0.57879  Biso   1.000  C 
  C104     1.0000 0.18499  0.21091  0.59786  Biso   1.000  C 
  H206     1.0000 0.21263  0.23927  0.58889  Biso   1.000  H 
  C105     1.0000 0.18038  0.21292  0.65407  Biso   1.000  C 
  H207     1.0000 0.14884  0.22177  0.58232  Biso   1.000  H 
  C106     1.0000 0.22317  0.19362  0.68793  Biso   1.000  C 
  H208     1.0000 0.14843  0.18882  0.66383  Biso   1.000  H 
  H209     1.0000 0.17112  0.25171  0.66451  Biso   1.000  H 
  C107     1.0000 0.24863  0.14851  0.60672  Biso   1.000  C 
  C108     1.0000 0.24375  0.14562  0.66397  Biso   1.000  C 
  H210     1.0000 0.26399  0.11254  0.59182  Biso   1.000  H 
  H211     1.0000 0.17572  0.13241  0.58869  Biso   1.000  H 
  H212     1.0000 0.28108  0.13673  0.67957  Biso   1.000  H 
  H213     1.0000 0.21785  0.11588  0.67510  Biso   1.000  H 
  H214     1.0000 0.20555  0.18357  0.72446  Biso   1.000  H 
  H215     1.0000 0.25177  0.22279  0.69421  Biso   1.000  H 
  H216     1.0000 0.27783  0.17746  0.60044  Biso   1.000  H 
  B507     1.0000 0.92810  0.36740  0.50000  Biso   1.000  B 
  B508     1.0000 0.88280  0.38280  0.50000  Biso   1.000  B 
  B509     1.0000 0.86740  0.42810  0.50000  Biso   1.000  B 
  B510     1.0000 0.84350  0.34350  0.50000  Biso   1.000  B 
  B511     1.0000 0.85530  0.29420  0.50000  Biso   1.000  B 
  B512     1.0000 0.79420  0.35530  0.50000  Biso   1.000  B 
  B513     1.0000 0.82050  0.25800  0.50000  Biso   1.000  B 
  B514     1.0000 0.88860  0.28510  0.50000  Biso   1.000  B 
  B515     1.0000 0.75800  0.32050  0.50000  Biso   1.000  B 
  B516     1.0000 0.78510  0.38860  0.50000  Biso   1.000  B 
  B517     1.0000 0.76930  0.26930  0.50000  Biso   1.000  B 
  B518     1.0000 0.73070  0.23070  0.50000  Biso   1.000  B 
  B519     1.0000 0.83050  0.22490  0.50000  Biso   1.000  B 
  B520     1.0000 0.74200  0.17950  0.50000  Biso   1.000  B 
  B521     1.0000 0.72490  0.33050  0.50000  Biso   1.000  B 
  B522     1.0000 0.67950  0.24200  0.50000  Biso   1.000  B 
  B523     1.0000 0.70580  0.14470  0.50000  Biso   1.000  B 
  N19      1.0000 0.79217  0.16072  0.47622  Biso   1.000  N 
  B524     1.0000 0.64470  0.20580  0.50000  Biso   1.000  B 
  B525     1.0000 0.66950  0.27510  0.50000  Biso   1.000  B 
  B526     1.0000 0.65650  0.15650  0.50000  Biso   1.000  B 
  B527     1.0000 0.61720  0.11720  0.50000  Biso   1.000  B 
  B528     1.0000 0.71490  0.11140  0.50000  Biso   1.000  B 
  B529     1.0000 0.61140  0.21490  0.50000  Biso   1.000  B 
  B530     1.0000 0.63260  0.07190  0.50000  Biso   1.000  B 
  B531     1.0000 0.57190  0.13260  0.50000  Biso   1.000  B 
  H217     1.0000 0.80380  0.12754  0.49299  Biso   1.000  H 
  C109     1.0000 0.79831  0.16090  0.42121  Biso   1.000  C 
  C110     1.0000 0.81501  0.21091  0.40214  Biso   1.000  C 
  H218     1.0000 0.78737  0.23927  0.41111  Biso   1.000  H 
  C111     1.0000 0.81962  0.21292  0.34592  Biso   1.000  C 
  H219     1.0000 0.85116  0.22177  0.41768  Biso   1.000  H 
  C112     1.0000 0.77683  0.19362  0.31207  Biso   1.000  C 
  H220     1.0000 0.85157  0.18882  0.33617  Biso   1.000  H 
  H221     1.0000 0.82887  0.25171  0.33549  Biso   1.000  H 
  C113     1.0000 0.75137  0.14851  0.39328  Biso   1.000  C 
  C114     1.0000 0.75625  0.14562  0.33603  Biso   1.000  C 
  H222     1.0000 0.73601  0.11254  0.40818  Biso   1.000  H 
  H223     1.0000 0.82428  0.13241  0.41131  Biso   1.000  H 
  H224     1.0000 0.71892  0.13673  0.32043  Biso   1.000  H 
  H225     1.0000 0.78215  0.11588  0.32490  Biso   1.000  H 
  H226     1.0000 0.79445  0.18357  0.27554  Biso   1.000  H 
  H227     1.0000 0.74823  0.22279  0.30579  Biso   1.000  H 
  H228     1.0000 0.72217  0.17746  0.39956  Biso   1.000  H 
  B532     1.0000 0.92810  0.63260  0.50000  Biso   1.000  B 
  B533     1.0000 0.88280  0.61720  0.50000  Biso   1.000  B 
  B534     1.0000 0.86740  0.57190  0.50000  Biso   1.000  B 
  B535     1.0000 0.84350  0.65650  0.50000  Biso   1.000  B 
  B536     1.0000 0.85530  0.70580  0.50000  Biso   1.000  B 
  B537     1.0000 0.79420  0.64470  0.50000  Biso   1.000  B 
  B538     1.0000 0.82050  0.74200  0.50000  Biso   1.000  B 
  B539     1.0000 0.88860  0.71490  0.50000  Biso   1.000  B 
  B540     1.0000 0.75800  0.67950  0.50000  Biso   1.000  B 
  B541     1.0000 0.78510  0.61140  0.50000  Biso   1.000  B 
  B542     1.0000 0.76930  0.73070  0.50000  Biso   1.000  B 
  B543     1.0000 0.73070  0.76930  0.50000  Biso   1.000  B 
  B544     1.0000 0.83050  0.77510  0.50000  Biso   1.000  B 
  B545     1.0000 0.74200  0.82050  0.50000  Biso   1.000  B 
  B546     1.0000 0.72490  0.66950  0.50000  Biso   1.000  B 
  B547     1.0000 0.67950  0.75800  0.50000  Biso   1.000  B 
  B548     1.0000 0.70580  0.85530  0.50000  Biso   1.000  B 
  N20      1.0000 0.79217  0.83928  0.52378  Biso   1.000  N 
  B549     1.0000 0.64470  0.79420  0.50000  Biso   1.000  B 
  B550     1.0000 0.66950  0.72490  0.50000  Biso   1.000  B 
  B551     1.0000 0.65650  0.84350  0.50000  Biso   1.000  B 
  B552     1.0000 0.61720  0.88280  0.50000  Biso   1.000  B 
  B553     1.0000 0.71490  0.88860  0.50000  Biso   1.000  B 
  B554     1.0000 0.61140  0.78510  0.50000  Biso   1.000  B 
  B555     1.0000 0.63260  0.92810  0.50000  Biso   1.000  B 
  B556     1.0000 0.57190  0.86740  0.50000  Biso   1.000  B 
  H229     1.0000 0.80380  0.87246  0.50701  Biso   1.000  H 
  C115     1.0000 0.79831  0.83910  0.57879  Biso   1.000  C 
  C116     1.0000 0.81501  0.78910  0.59786  Biso   1.000  C 
  H230     1.0000 0.78737  0.76073  0.58889  Biso   1.000  H 
  C117     1.0000 0.81962  0.78708  0.65407  Biso   1.000  C 
  H231     1.0000 0.85116  0.77823  0.58232  Biso   1.000  H 
  C118     1.0000 0.77683  0.80638  0.68793  Biso   1.000  C 
  H232     1.0000 0.85157  0.81118  0.66383  Biso   1.000  H 
  H233     1.0000 0.82887  0.74829  0.66451  Biso   1.000  H 
  C119     1.0000 0.75137  0.85149  0.60672  Biso   1.000  C 
  C120     1.0000 0.75625  0.85438  0.66397  Biso   1.000  C 
  H234     1.0000 0.73601  0.88746  0.59182  Biso   1.000  H 
  H235     1.0000 0.82428  0.86759  0.58869  Biso   1.000  H 
  H236     1.0000 0.71892  0.86327  0.67957  Biso   1.000  H 
  H237     1.0000 0.78215  0.88412  0.67510  Biso   1.000  H 
  H238     1.0000 0.79445  0.81643  0.72446  Biso   1.000  H 
  H239     1.0000 0.74823  0.77721  0.69421  Biso   1.000  H 
  H240     1.0000 0.72217  0.82254  0.60044  Biso   1.000  H 
  B557     1.0000 0.50000  0.07190  0.63260  Biso   1.000  B 
  B558     1.0000 0.50000  0.11720  0.61720  Biso   1.000  B 
  B559     1.0000 0.50000  0.13260  0.57190  Biso   1.000  B 
  B560     1.0000 0.50000  0.15650  0.65650  Biso   1.000  B 
  B561     1.0000 0.50000  0.14470  0.70580  Biso   1.000  B 
  B562     1.0000 0.50000  0.20580  0.64470  Biso   1.000  B 
  B563     1.0000 0.50000  0.17950  0.74200  Biso   1.000  B 
  B564     1.0000 0.50000  0.11140  0.71490  Biso   1.000  B 
  B565     1.0000 0.50000  0.24200  0.67950  Biso   1.000  B 
  B566     1.0000 0.50000  0.21490  0.61140  Biso   1.000  B 
  B567     1.0000 0.50000  0.23070  0.73070  Biso   1.000  B 
  B568     1.0000 0.50000  0.26930  0.76930  Biso   1.000  B 
  B569     1.0000 0.50000  0.16950  0.77510  Biso   1.000  B 
  B570     1.0000 0.50000  0.25800  0.82050  Biso   1.000  B 
  B571     1.0000 0.50000  0.27510  0.66950  Biso   1.000  B 
  B572     1.0000 0.50000  0.32050  0.75800  Biso   1.000  B 
  B573     1.0000 0.50000  0.29420  0.85530  Biso   1.000  B 
  N21      1.0000 0.47017  0.21165  0.83617  Biso   1.000  N 
  B574     1.0000 0.50000  0.35530  0.79420  Biso   1.000  B 
  B575     1.0000 0.50000  0.33050  0.72490  Biso   1.000  B 
  B576     1.0000 0.50000  0.34350  0.84350  Biso   1.000  B 
  B577     1.0000 0.50000  0.38280  0.88280  Biso   1.000  B 
  B578     1.0000 0.50000  0.28510  0.88860  Biso   1.000  B 
  B579     1.0000 0.50000  0.38860  0.78510  Biso   1.000  B 
  B580     1.0000 0.50000  0.36740  0.92810  Biso   1.000  B 
  B581     1.0000 0.50000  0.42810  0.86740  Biso   1.000  B 
  H241     1.0000 0.47397  0.20722  0.87468  Biso   1.000  H 
  C121     1.0000 0.41511  0.21550  0.82491  Biso   1.000  C 
  C122     1.0000 0.39471  0.26881  0.81522  Biso   1.000  C 
  H242     1.0000 0.39892  0.29372  0.84809  Biso   1.000  H 
  C123     1.0000 0.33929  0.26745  0.80096  Biso   1.000  C 
  H243     1.0000 0.41165  0.28768  0.78319  Biso   1.000  H 
  C124     1.0000 0.30525  0.23694  0.83564  Biso   1.000  C 
  H244     1.0000 0.33395  0.25001  0.76310  Biso   1.000  H 
  H245     1.0000 0.32541  0.30623  0.79906  Biso   1.000  H 
  C125     1.0000 0.38244  0.19659  0.86926  Biso   1.000  C 
  C126     1.0000 0.32779  0.18948  0.85640  Biso   1.000  C 
  H246     1.0000 0.39619  0.15916  0.87828  Biso   1.000  H 
  H247     1.0000 0.40697  0.19113  0.79120  Biso   1.000  H 
  H248     1.0000 0.30708  0.18137  0.89214  Biso   1.000  H 
  H249     1.0000 0.32252  0.15781  0.83113  Biso   1.000  H 
  H250     1.0000 0.26798  0.22986  0.81801  Biso   1.000  H 
  H251     1.0000 0.29954  0.26063  0.86840  Biso   1.000  H 
  H252     1.0000 0.38677  0.22139  0.90279  Biso   1.000  H 
  B582     1.0000 0.50000  0.07190  0.36740  Biso   1.000  B 
  B583     1.0000 0.50000  0.11720  0.38280  Biso   1.000  B 
  B584     1.0000 0.50000  0.13260  0.42810  Biso   1.000  B 
  B585     1.0000 0.50000  0.15650  0.34350  Biso   1.000  B 
  B586     1.0000 0.50000  0.14470  0.29420  Biso   1.000  B 
  B587     1.0000 0.50000  0.20580  0.35530  Biso   1.000  B 
  B588     1.0000 0.50000  0.17950  0.25800  Biso   1.000  B 
  B589     1.0000 0.50000  0.11140  0.28510  Biso   1.000  B 
  B590     1.0000 0.50000  0.24200  0.32050  Biso   1.000  B 
  B591     1.0000 0.50000  0.21490  0.38860  Biso   1.000  B 
  B592     1.0000 0.50000  0.23070  0.26930  Biso   1.000  B 
  B593     1.0000 0.50000  0.26930  0.23070  Biso   1.000  B 
  B594     1.0000 0.50000  0.16950  0.22490  Biso   1.000  B 
  B595     1.0000 0.50000  0.25800  0.17950  Biso   1.000  B 
  B596     1.0000 0.50000  0.27510  0.33050  Biso   1.000  B 
  B597     1.0000 0.50000  0.32050  0.24200  Biso   1.000  B 
  B598     1.0000 0.50000  0.29420  0.14470  Biso   1.000  B 
  N22      1.0000 0.52983  0.21165  0.16383  Biso   1.000  N 
  B599     1.0000 0.50000  0.35530  0.20580  Biso   1.000  B 
  B600     1.0000 0.50000  0.33050  0.27510  Biso   1.000  B 
  B601     1.0000 0.50000  0.34350  0.15650  Biso   1.000  B 
  B602     1.0000 0.50000  0.38280  0.11720  Biso   1.000  B 
  B603     1.0000 0.50000  0.28510  0.11140  Biso   1.000  B 
  B604     1.0000 0.50000  0.38860  0.21490  Biso   1.000  B 
  B605     1.0000 0.50000  0.36740  0.07190  Biso   1.000  B 
  B606     1.0000 0.50000  0.42810  0.13260  Biso   1.000  B 
  H253     1.0000 0.52603  0.20722  0.12532  Biso   1.000  H 
  C127     1.0000 0.58489  0.21550  0.17509  Biso   1.000  C 
  C128     1.0000 0.60529  0.26881  0.18478  Biso   1.000  C 
  H254     1.0000 0.60108  0.29372  0.15191  Biso   1.000  H 
  C129     1.0000 0.66071  0.26745  0.19904  Biso   1.000  C 
  H255     1.0000 0.58835  0.28768  0.21681  Biso   1.000  H 
  C130     1.0000 0.69475  0.23694  0.16436  Biso   1.000  C 
  H256     1.0000 0.66605  0.25001  0.23690  Biso   1.000  H 
  H257     1.0000 0.67459  0.30623  0.20094  Biso   1.000  H 
  C131     1.0000 0.61756  0.19659  0.13074  Biso   1.000  C 
  C132     1.0000 0.67221  0.18948  0.14360  Biso   1.000  C 
  H258     1.0000 0.60381  0.15916  0.12172  Biso   1.000  H 
  H259     1.0000 0.59303  0.19113  0.20880  Biso   1.000  H 
  H260     1.0000 0.69292  0.18137  0.10786  Biso   1.000  H 
  H261     1.0000 0.67748  0.15781  0.16887  Biso   1.000  H 
  H262     1.0000 0.73202  0.22986  0.18199  Biso   1.000  H 
  H263     1.0000 0.70046  0.26063  0.13159  Biso   1.000  H 
  H264     1.0000 0.61323  0.22139  0.09721  Biso   1.000  H 
  B607     1.0000 0.50000  0.92810  0.36740  Biso   1.000  B 
  B608     1.0000 0.50000  0.88280  0.38280  Biso   1.000  B 
  B609     1.0000 0.50000  0.86740  0.42810  Biso   1.000  B 
  B610     1.0000 0.50000  0.84350  0.34350  Biso   1.000  B 
  B611     1.0000 0.50000  0.85530  0.29420  Biso   1.000  B 
  B612     1.0000 0.50000  0.79420  0.35530  Biso   1.000  B 
  B613     1.0000 0.50000  0.82050  0.25800  Biso   1.000  B 
  B614     1.0000 0.50000  0.88860  0.28510  Biso   1.000  B 
  B615     1.0000 0.50000  0.75800  0.32050  Biso   1.000  B 
  B616     1.0000 0.50000  0.78510  0.38860  Biso   1.000  B 
  B617     1.0000 0.50000  0.76930  0.26930  Biso   1.000  B 
  B618     1.0000 0.50000  0.73070  0.23070  Biso   1.000  B 
  B619     1.0000 0.50000  0.83050  0.22490  Biso   1.000  B 
  B620     1.0000 0.50000  0.74200  0.17950  Biso   1.000  B 
  B621     1.0000 0.50000  0.72490  0.33050  Biso   1.000  B 
  B622     1.0000 0.50000  0.67950  0.24200  Biso   1.000  B 
  B623     1.0000 0.50000  0.70580  0.14470  Biso   1.000  B 
  N23      1.0000 0.47017  0.78835  0.16383  Biso   1.000  N 
  B624     1.0000 0.50000  0.64470  0.20580  Biso   1.000  B 
  B625     1.0000 0.50000  0.66950  0.27510  Biso   1.000  B 
  B626     1.0000 0.50000  0.65650  0.15650  Biso   1.000  B 
  B627     1.0000 0.50000  0.61720  0.11720  Biso   1.000  B 
  B628     1.0000 0.50000  0.71490  0.11140  Biso   1.000  B 
  B629     1.0000 0.50000  0.61140  0.21490  Biso   1.000  B 
  B630     1.0000 0.50000  0.63260  0.07190  Biso   1.000  B 
  B631     1.0000 0.50000  0.57190  0.13260  Biso   1.000  B 
  H265     1.0000 0.47397  0.79278  0.12532  Biso   1.000  H 
  C133     1.0000 0.41511  0.78450  0.17509  Biso   1.000  C 
  C134     1.0000 0.39471  0.73119  0.18478  Biso   1.000  C 
  H266     1.0000 0.39892  0.70628  0.15191  Biso   1.000  H 
  C135     1.0000 0.33929  0.73255  0.19904  Biso   1.000  C 
  H267     1.0000 0.41165  0.71231  0.21681  Biso   1.000  H 
  C136     1.0000 0.30525  0.76306  0.16436  Biso   1.000  C 
  H268     1.0000 0.33395  0.74999  0.23690  Biso   1.000  H 
  H269     1.0000 0.32541  0.69377  0.20094  Biso   1.000  H 
  C137     1.0000 0.38244  0.80341  0.13074  Biso   1.000  C 
  C138     1.0000 0.32779  0.81052  0.14360  Biso   1.000  C 
  H270     1.0000 0.39619  0.84084  0.12172  Biso   1.000  H 
  H271     1.0000 0.40697  0.80887  0.20880  Biso   1.000  H 
  H272     1.0000 0.30708  0.81863  0.10786  Biso   1.000  H 
  H273     1.0000 0.32252  0.84218  0.16887  Biso   1.000  H 
  H274     1.0000 0.26798  0.77014  0.18199  Biso   1.000  H 
  H275     1.0000 0.29954  0.73937  0.13159  Biso   1.000  H 
  H276     1.0000 0.38677  0.77861  0.09721  Biso   1.000  H 
  B632     1.0000 0.50000  0.92810  0.63260  Biso   1.000  B 
  B633     1.0000 0.50000  0.88280  0.61720  Biso   1.000  B 
  B634     1.0000 0.50000  0.86740  0.57190  Biso   1.000  B 
  B635     1.0000 0.50000  0.84350  0.65650  Biso   1.000  B 
  B636     1.0000 0.50000  0.85530  0.70580  Biso   1.000  B 
  B637     1.0000 0.50000  0.79420  0.64470  Biso   1.000  B 
  B638     1.0000 0.50000  0.82050  0.74200  Biso   1.000  B 
  B639     1.0000 0.50000  0.88860  0.71490  Biso   1.000  B 
  B640     1.0000 0.50000  0.75800  0.67950  Biso   1.000  B 
  B641     1.0000 0.50000  0.78510  0.61140  Biso   1.000  B 
  B642     1.0000 0.50000  0.76930  0.73070  Biso   1.000  B 
  B643     1.0000 0.50000  0.73070  0.76930  Biso   1.000  B 
  B644     1.0000 0.50000  0.83050  0.77510  Biso   1.000  B 
  B645     1.0000 0.50000  0.74200  0.82050  Biso   1.000  B 
  B646     1.0000 0.50000  0.72490  0.66950  Biso   1.000  B 
  B647     1.0000 0.50000  0.67950  0.75800  Biso   1.000  B 
  B648     1.0000 0.50000  0.70580  0.85530  Biso   1.000  B 
  N24      1.0000 0.52983  0.78835  0.83617  Biso   1.000  N 
  B649     1.0000 0.50000  0.64470  0.79420  Biso   1.000  B 
  B650     1.0000 0.50000  0.66950  0.72490  Biso   1.000  B 
  B651     1.0000 0.50000  0.65650  0.84350  Biso   1.000  B 
  B652     1.0000 0.50000  0.61720  0.88280  Biso   1.000  B 
  B653     1.0000 0.50000  0.71490  0.88860  Biso   1.000  B 
  B654     1.0000 0.50000  0.61140  0.78510  Biso   1.000  B 
  B655     1.0000 0.50000  0.63260  0.92810  Biso   1.000  B 
  B656     1.0000 0.50000  0.57190  0.86740  Biso   1.000  B 
  H277     1.0000 0.52603  0.79278  0.87468  Biso   1.000  H 
  C139     1.0000 0.58489  0.78450  0.82491  Biso   1.000  C 
  C140     1.0000 0.60529  0.73119  0.81522  Biso   1.000  C 
  H278     1.0000 0.60108  0.70628  0.84809  Biso   1.000  H 
  C141     1.0000 0.66071  0.73255  0.80096  Biso   1.000  C 
  H279     1.0000 0.58835  0.71231  0.78319  Biso   1.000  H 
  C142     1.0000 0.69475  0.76306  0.83564  Biso   1.000  C 
  H280     1.0000 0.66605  0.74999  0.76310  Biso   1.000  H 
  H281     1.0000 0.67459  0.69377  0.79906  Biso   1.000  H 
  C143     1.0000 0.61756  0.80341  0.86926  Biso   1.000  C 
  C144     1.0000 0.67221  0.81052  0.85640  Biso   1.000  C 
  H282     1.0000 0.60381  0.84084  0.87828  Biso   1.000  H 
  H283     1.0000 0.59303  0.80887  0.79120  Biso   1.000  H 
  H284     1.0000 0.69292  0.81863  0.89214  Biso   1.000  H 
  H285     1.0000 0.67748  0.84218  0.83113  Biso   1.000  H 
  H286     1.0000 0.73202  0.77014  0.81801  Biso   1.000  H 
  H287     1.0000 0.70046  0.73937  0.86840  Biso   1.000  H 
  H288     1.0000 0.61323  0.77861  0.90279  Biso   1.000  H 
