data_image0
_cell_length_a       26.896
_cell_length_b       26.896
_cell_length_c       26.896
_cell_angle_alpha    90
_cell_angle_beta     90
_cell_angle_gamma    90

_symmetry_space_group_name_H-M    "P 1"
_symmetry_int_tables_number       1

loop_
  _symmetry_equiv_pos_as_xyz
  'x, y, z'

loop_
  _atom_site_label
  _atom_site_occupancy
  _atom_site_fract_x
  _atom_site_fract_y
  _atom_site_fract_z
  _atom_site_thermal_displace_type
  _atom_site_B_iso_or_equiv
  _atom_site_type_symbol
  B1       1.0000 0.09204  0.00000  0.00000  Biso   1.000  B 
  B2       1.0000 0.90796  0.00000  0.00000  Biso   1.000  B 
  B3       1.0000 0.00000  0.09204  0.00000  Biso   1.000  B 
  B4       1.0000 0.00000  0.90796  0.00000  Biso   1.000  B 
  B5       1.0000 0.00000  0.00000  0.09204  Biso   1.000  B 
  B6       1.0000 0.00000  0.00000  0.90796  Biso   1.000  B 
  B7       1.0000 0.09204  0.50000  0.50000  Biso   1.000  B 
  B8       1.0000 0.90796  0.50000  0.50000  Biso   1.000  B 
  B9       1.0000 0.00000  0.59204  0.50000  Biso   1.000  B 
  B10      1.0000 0.00000  0.40796  0.50000  Biso   1.000  B 
  B11      1.0000 0.00000  0.50000  0.59204  Biso   1.000  B 
  B12      1.0000 0.00000  0.50000  0.40796  Biso   1.000  B 
  B13      1.0000 0.59204  0.00000  0.50000  Biso   1.000  B 
  B14      1.0000 0.40796  0.00000  0.50000  Biso   1.000  B 
  B15      1.0000 0.50000  0.09204  0.50000  Biso   1.000  B 
  B16      1.0000 0.50000  0.90796  0.50000  Biso   1.000  B 
  B17      1.0000 0.50000  0.00000  0.59204  Biso   1.000  B 
  B18      1.0000 0.50000  0.00000  0.40796  Biso   1.000  B 
  B19      1.0000 0.59204  0.50000  0.00000  Biso   1.000  B 
  B20      1.0000 0.40796  0.50000  0.00000  Biso   1.000  B 
  B21      1.0000 0.50000  0.59204  0.00000  Biso   1.000  B 
  B22      1.0000 0.50000  0.40796  0.00000  Biso   1.000  B 
  B23      1.0000 0.50000  0.50000  0.09204  Biso   1.000  B 
  B24      1.0000 0.50000  0.50000  0.90796  Biso   1.000  B 
  B25      1.0000 0.04540  0.04540  0.04540  Biso   1.000  B 
  B26      1.0000 0.95460  0.95460  0.04540  Biso   1.000  B 
  B27      1.0000 0.95460  0.04540  0.95460  Biso   1.000  B 
  B28      1.0000 0.04540  0.95460  0.95460  Biso   1.000  B 
  B29      1.0000 0.04540  0.04540  0.95460  Biso   1.000  B 
  B30      1.0000 0.95460  0.95460  0.95460  Biso   1.000  B 
  B31      1.0000 0.04540  0.95460  0.04540  Biso   1.000  B 
  B32      1.0000 0.95460  0.04540  0.04540  Biso   1.000  B 
  B33      1.0000 0.04540  0.54540  0.54540  Biso   1.000  B 
  B34      1.0000 0.95460  0.45460  0.54540  Biso   1.000  B 
  B35      1.0000 0.95460  0.54540  0.45460  Biso   1.000  B 
  B36      1.0000 0.04540  0.45460  0.45460  Biso   1.000  B 
  B37      1.0000 0.04540  0.54540  0.45460  Biso   1.000  B 
  B38      1.0000 0.95460  0.45460  0.45460  Biso   1.000  B 
  B39      1.0000 0.04540  0.45460  0.54540  Biso   1.000  B 
  B40      1.0000 0.95460  0.54540  0.54540  Biso   1.000  B 
  B41      1.0000 0.54540  0.04540  0.54540  Biso   1.000  B 
  B42      1.0000 0.45460  0.95460  0.54540  Biso   1.000  B 
  B43      1.0000 0.45460  0.04540  0.45460  Biso   1.000  B 
  B44      1.0000 0.54540  0.95460  0.45460  Biso   1.000  B 
  B45      1.0000 0.54540  0.04540  0.45460  Biso   1.000  B 
  B46      1.0000 0.45460  0.95460  0.45460  Biso   1.000  B 
  B47      1.0000 0.54540  0.95460  0.54540  Biso   1.000  B 
  B48      1.0000 0.45460  0.04540  0.54540  Biso   1.000  B 
  B49      1.0000 0.54540  0.54540  0.04540  Biso   1.000  B 
  B50      1.0000 0.45460  0.45460  0.04540  Biso   1.000  B 
  B51      1.0000 0.45460  0.54540  0.95460  Biso   1.000  B 
  B52      1.0000 0.54540  0.45460  0.95460  Biso   1.000  B 
  B53      1.0000 0.54540  0.54540  0.95460  Biso   1.000  B 
  B54      1.0000 0.45460  0.45460  0.95460  Biso   1.000  B 
  B55      1.0000 0.54540  0.45460  0.04540  Biso   1.000  B 
  B56      1.0000 0.45460  0.54540  0.04540  Biso   1.000  B 
  B57      1.0000 0.13260  0.00000  0.07190  Biso   1.000  B 
  B58      1.0000 0.11720  0.00000  0.11720  Biso   1.000  B 
  B59      1.0000 0.07190  0.00000  0.13260  Biso   1.000  B 
  B60      1.0000 0.15650  0.00000  0.15650  Biso   1.000  B 
  B61      1.0000 0.20580  0.00000  0.14470  Biso   1.000  B 
  B62      1.0000 0.14470  0.00000  0.20580  Biso   1.000  B 
  B63      1.0000 0.24200  0.00000  0.17950  Biso   1.000  B 
  B64      1.0000 0.21490  0.00000  0.11140  Biso   1.000  B 
  B65      1.0000 0.17950  0.00000  0.24200  Biso   1.000  B 
  B66      1.0000 0.11140  0.00000  0.21490  Biso   1.000  B 
  B67      1.0000 0.23070  0.00000  0.23070  Biso   1.000  B 
  B68      1.0000 0.26930  0.00000  0.26930  Biso   1.000  B 
  B69      1.0000 0.27510  0.00000  0.16950  Biso   1.000  B 
  B70      1.0000 0.32050  0.00000  0.25800  Biso   1.000  B 
  B71      1.0000 0.16950  0.00000  0.27510  Biso   1.000  B 
  B72      1.0000 0.25800  0.00000  0.32050  Biso   1.000  B 
  B73      1.0000 0.35530  0.00000  0.29420  Biso   1.000  B 
  N1       1.0000 0.33708  0.02595  0.21036  Biso   1.000  N 
  B74      1.0000 0.29420  0.00000  0.35530  Biso   1.000  B 
  B75      1.0000 0.22490  0.00000  0.33050  Biso   1.000  B 
  B76      1.0000 0.34350  0.00000  0.34350  Biso   1.000  B 
  B77      1.0000 0.38280  0.00000  0.38280  Biso   1.000  B 
  B78      1.0000 0.38860  0.00000  0.28510  Biso   1.000  B 
  B79      1.0000 0.28510  0.00000  0.38860  Biso   1.000  B 
  B80      1.0000 0.42810  0.00000  0.36740  Biso   1.000  B 
  B81      1.0000 0.36740  0.00000  0.42810  Biso   1.000  B 
  H1       1.0000 0.34916  0.06204  0.22012  Biso   1.000  H 
  C1       1.0000 0.37607  0.99624  0.18388  Biso   1.000  C 
  C2       1.0000 0.42367  0.02595  0.17600  Biso   1.000  C 
  C3       1.0000 0.41514  0.07309  0.14279  Biso   1.000  C 
  H2       1.0000 0.37559  0.08539  0.14428  Biso   1.000  H 
  H3       1.0000 0.42204  0.06696  0.10387  Biso   1.000  H 
  H4       1.0000 0.43910  0.10488  0.15829  Biso   1.000  H 
  H5       1.0000 0.35882  0.98424  0.14915  Biso   1.000  H 
  H6       1.0000 0.38641  0.96216  0.20473  Biso   1.000  H 
  H7       1.0000 0.44620  0.99843  0.15440  Biso   1.000  H 
  H8       1.0000 0.44197  0.03580  0.21243  Biso   1.000  H 
  B82      1.0000 0.86740  0.00000  0.07190  Biso   1.000  B 
  B83      1.0000 0.88280  0.00000  0.11720  Biso   1.000  B 
  B84      1.0000 0.92810  0.00000  0.13260  Biso   1.000  B 
  B85      1.0000 0.84350  0.00000  0.15650  Biso   1.000  B 
  B86      1.0000 0.79420  0.00000  0.14470  Biso   1.000  B 
  B87      1.0000 0.85530  0.00000  0.20580  Biso   1.000  B 
  B88      1.0000 0.75800  0.00000  0.17950  Biso   1.000  B 
  B89      1.0000 0.78510  0.00000  0.11140  Biso   1.000  B 
  B90      1.0000 0.82050  0.00000  0.24200  Biso   1.000  B 
  B91      1.0000 0.88860  0.00000  0.21490  Biso   1.000  B 
  B92      1.0000 0.76930  0.00000  0.23070  Biso   1.000  B 
  B93      1.0000 0.73070  0.00000  0.26930  Biso   1.000  B 
  B94      1.0000 0.72490  0.00000  0.16950  Biso   1.000  B 
  B95      1.0000 0.67950  0.00000  0.25800  Biso   1.000  B 
  B96      1.0000 0.83050  0.00000  0.27510  Biso   1.000  B 
  B97      1.0000 0.74200  0.00000  0.32050  Biso   1.000  B 
  B98      1.0000 0.64470  0.00000  0.29420  Biso   1.000  B 
  N2       1.0000 0.66292  0.97405  0.21036  Biso   1.000  N 
  B99      1.0000 0.70580  0.00000  0.35530  Biso   1.000  B 
  B100     1.0000 0.77510  0.00000  0.33050  Biso   1.000  B 
  B101     1.0000 0.65650  0.00000  0.34350  Biso   1.000  B 
  B102     1.0000 0.61720  0.00000  0.38280  Biso   1.000  B 
  B103     1.0000 0.61140  0.00000  0.28510  Biso   1.000  B 
  B104     1.0000 0.71490  0.00000  0.38860  Biso   1.000  B 
  B105     1.0000 0.57190  0.00000  0.36740  Biso   1.000  B 
  B106     1.0000 0.63260  0.00000  0.42810  Biso   1.000  B 
  H9       1.0000 0.65084  0.93796  0.22012  Biso   1.000  H 
  C4       1.0000 0.62393  0.00376  0.18388  Biso   1.000  C 
  C5       1.0000 0.57633  0.97405  0.17600  Biso   1.000  C 
  C6       1.0000 0.58486  0.92691  0.14279  Biso   1.000  C 
  H10      1.0000 0.62441  0.91461  0.14428  Biso   1.000  H 
  H11      1.0000 0.57796  0.93304  0.10387  Biso   1.000  H 
  H12      1.0000 0.56090  0.89512  0.15829  Biso   1.000  H 
  H13      1.0000 0.64118  0.01576  0.14915  Biso   1.000  H 
  H14      1.0000 0.61359  0.03784  0.20473  Biso   1.000  H 
  H15      1.0000 0.55380  0.00157  0.15440  Biso   1.000  H 
  H16      1.0000 0.55803  0.96420  0.21243  Biso   1.000  H 
  B107     1.0000 0.86740  0.00000  0.92810  Biso   1.000  B 
  B108     1.0000 0.88280  0.00000  0.88280  Biso   1.000  B 
  B109     1.0000 0.92810  0.00000  0.86740  Biso   1.000  B 
  B110     1.0000 0.84350  0.00000  0.84350  Biso   1.000  B 
  B111     1.0000 0.79420  0.00000  0.85530  Biso   1.000  B 
  B112     1.0000 0.85530  0.00000  0.79420  Biso   1.000  B 
  B113     1.0000 0.75800  0.00000  0.82050  Biso   1.000  B 
  B114     1.0000 0.78510  0.00000  0.88860  Biso   1.000  B 
  B115     1.0000 0.82050  0.00000  0.75800  Biso   1.000  B 
  B116     1.0000 0.88860  0.00000  0.78510  Biso   1.000  B 
  B117     1.0000 0.76930  0.00000  0.76930  Biso   1.000  B 
  B118     1.0000 0.73070  0.00000  0.73070  Biso   1.000  B 
  B119     1.0000 0.72490  0.00000  0.83050  Biso   1.000  B 
  B120     1.0000 0.67950  0.00000  0.74200  Biso   1.000  B 
  B121     1.0000 0.83050  0.00000  0.72490  Biso   1.000  B 
  B122     1.0000 0.74200  0.00000  0.67950  Biso   1.000  B 
  B123     1.0000 0.64470  0.00000  0.70580  Biso   1.000  B 
  N3       1.0000 0.66292  0.02595  0.78964  Biso   1.000  N 
  B124     1.0000 0.70580  0.00000  0.64470  Biso   1.000  B 
  B125     1.0000 0.77510  0.00000  0.66950  Biso   1.000  B 
  B126     1.0000 0.65650  0.00000  0.65650  Biso   1.000  B 
  B127     1.0000 0.61720  0.00000  0.61720  Biso   1.000  B 
  B128     1.0000 0.61140  0.00000  0.71490  Biso   1.000  B 
  B129     1.0000 0.71490  0.00000  0.61140  Biso   1.000  B 
  B130     1.0000 0.57190  0.00000  0.63260  Biso   1.000  B 
  B131     1.0000 0.63260  0.00000  0.57190  Biso   1.000  B 
  H17      1.0000 0.65084  0.06204  0.77987  Biso   1.000  H 
  C7       1.0000 0.62393  0.99624  0.81612  Biso   1.000  C 
  C8       1.0000 0.57633  0.02595  0.82400  Biso   1.000  C 
  C9       1.0000 0.58486  0.07309  0.85721  Biso   1.000  C 
  H18      1.0000 0.62441  0.08539  0.85571  Biso   1.000  H 
  H19      1.0000 0.57796  0.06696  0.89613  Biso   1.000  H 
  H20      1.0000 0.56090  0.10488  0.84171  Biso   1.000  H 
  H21      1.0000 0.64118  0.98424  0.85084  Biso   1.000  H 
  H22      1.0000 0.61359  0.96216  0.79527  Biso   1.000  H 
  H23      1.0000 0.55380  0.99843  0.84560  Biso   1.000  H 
  H24      1.0000 0.55803  0.03580  0.78757  Biso   1.000  H 
  B132     1.0000 0.13260  0.00000  0.92810  Biso   1.000  B 
  B133     1.0000 0.11720  0.00000  0.88280  Biso   1.000  B 
  B134     1.0000 0.07190  0.00000  0.86740  Biso   1.000  B 
  B135     1.0000 0.15650  0.00000  0.84350  Biso   1.000  B 
  B136     1.0000 0.20580  0.00000  0.85530  Biso   1.000  B 
  B137     1.0000 0.14470  0.00000  0.79420  Biso   1.000  B 
  B138     1.0000 0.24200  0.00000  0.82050  Biso   1.000  B 
  B139     1.0000 0.21490  0.00000  0.88860  Biso   1.000  B 
  B140     1.0000 0.17950  0.00000  0.75800  Biso   1.000  B 
  B141     1.0000 0.11140  0.00000  0.78510  Biso   1.000  B 
  B142     1.0000 0.23070  0.00000  0.76930  Biso   1.000  B 
  B143     1.0000 0.26930  0.00000  0.73070  Biso   1.000  B 
  B144     1.0000 0.27510  0.00000  0.83050  Biso   1.000  B 
  B145     1.0000 0.32050  0.00000  0.74200  Biso   1.000  B 
  B146     1.0000 0.16950  0.00000  0.72490  Biso   1.000  B 
  B147     1.0000 0.25800  0.00000  0.67950  Biso   1.000  B 
  B148     1.0000 0.35530  0.00000  0.70580  Biso   1.000  B 
  N4       1.0000 0.33708  0.97405  0.78964  Biso   1.000  N 
  B149     1.0000 0.29420  0.00000  0.64470  Biso   1.000  B 
  B150     1.0000 0.22490  0.00000  0.66950  Biso   1.000  B 
  B151     1.0000 0.34350  0.00000  0.65650  Biso   1.000  B 
  B152     1.0000 0.38280  0.00000  0.61720  Biso   1.000  B 
  B153     1.0000 0.38860  0.00000  0.71490  Biso   1.000  B 
  B154     1.0000 0.28510  0.00000  0.61140  Biso   1.000  B 
  B155     1.0000 0.42810  0.00000  0.63260  Biso   1.000  B 
  B156     1.0000 0.36740  0.00000  0.57190  Biso   1.000  B 
  H25      1.0000 0.34916  0.93796  0.77987  Biso   1.000  H 
  C10      1.0000 0.37607  0.00376  0.81612  Biso   1.000  C 
  C11      1.0000 0.42367  0.97405  0.82400  Biso   1.000  C 
  C12      1.0000 0.41514  0.92691  0.85721  Biso   1.000  C 
  H26      1.0000 0.37559  0.91461  0.85571  Biso   1.000  H 
  H27      1.0000 0.42204  0.93304  0.89613  Biso   1.000  H 
  H28      1.0000 0.43910  0.89512  0.84171  Biso   1.000  H 
  H29      1.0000 0.35882  0.01576  0.85084  Biso   1.000  H 
  H30      1.0000 0.38641  0.03784  0.79527  Biso   1.000  H 
  H31      1.0000 0.44620  0.00157  0.84560  Biso   1.000  H 
  H32      1.0000 0.44197  0.96420  0.78757  Biso   1.000  H 
  B157     1.0000 0.07190  0.13260  0.00000  Biso   1.000  B 
  B158     1.0000 0.11720  0.11720  0.00000  Biso   1.000  B 
  B159     1.0000 0.13260  0.07190  0.00000  Biso   1.000  B 
  B160     1.0000 0.15650  0.15650  0.00000  Biso   1.000  B 
  B161     1.0000 0.14470  0.20580  0.00000  Biso   1.000  B 
  B162     1.0000 0.20580  0.14470  0.00000  Biso   1.000  B 
  B163     1.0000 0.17950  0.24200  0.00000  Biso   1.000  B 
  B164     1.0000 0.11140  0.21490  0.00000  Biso   1.000  B 
  B165     1.0000 0.24200  0.17950  0.00000  Biso   1.000  B 
  B166     1.0000 0.21490  0.11140  0.00000  Biso   1.000  B 
  B167     1.0000 0.23070  0.23070  0.00000  Biso   1.000  B 
  B168     1.0000 0.26930  0.26930  0.00000  Biso   1.000  B 
  B169     1.0000 0.16950  0.27510  0.00000  Biso   1.000  B 
  B170     1.0000 0.25800  0.32050  0.00000  Biso   1.000  B 
  B171     1.0000 0.27510  0.16950  0.00000  Biso   1.000  B 
  B172     1.0000 0.32050  0.25800  0.00000  Biso   1.000  B 
  B173     1.0000 0.29420  0.35530  0.00000  Biso   1.000  B 
  N5       1.0000 0.20577  0.34250  0.99601  Biso   1.000  N 
  B174     1.0000 0.35530  0.29420  0.00000  Biso   1.000  B 
  B175     1.0000 0.33050  0.22490  0.00000  Biso   1.000  B 
  B176     1.0000 0.34350  0.34350  0.00000  Biso   1.000  B 
  B177     1.0000 0.38280  0.38280  0.00000  Biso   1.000  B 
  B178     1.0000 0.28510  0.38860  0.00000  Biso   1.000  B 
  B179     1.0000 0.38860  0.28510  0.00000  Biso   1.000  B 
  B180     1.0000 0.36740  0.42810  0.00000  Biso   1.000  B 
  B181     1.0000 0.42810  0.36740  0.00000  Biso   1.000  B 
  H33      1.0000 0.20072  0.36586  0.02584  Biso   1.000  H 
  C13      1.0000 0.19785  0.36943  0.94859  Biso   1.000  C 
  C14      1.0000 0.14348  0.38597  0.94387  Biso   1.000  C 
  C15      1.0000 0.13923  0.43393  0.91449  Biso   1.000  C 
  H34      1.0000 0.16105  0.46231  0.93498  Biso   1.000  H 
  H35      1.0000 0.10142  0.44732  0.90732  Biso   1.000  H 
  H36      1.0000 0.15862  0.42800  0.88013  Biso   1.000  H 
  H37      1.0000 0.21024  0.34438  0.91826  Biso   1.000  H 
  H38      1.0000 0.22127  0.40226  0.94784  Biso   1.000  H 
  H39      1.0000 0.12705  0.39147  0.98176  Biso   1.000  H 
  H40      1.0000 0.12161  0.35623  0.92334  Biso   1.000  H 
  B182     1.0000 0.07190  0.86740  0.00000  Biso   1.000  B 
  B183     1.0000 0.11720  0.88280  0.00000  Biso   1.000  B 
  B184     1.0000 0.13260  0.92810  0.00000  Biso   1.000  B 
  B185     1.0000 0.15650  0.84350  0.00000  Biso   1.000  B 
  B186     1.0000 0.14470  0.79420  0.00000  Biso   1.000  B 
  B187     1.0000 0.20580  0.85530  0.00000  Biso   1.000  B 
  B188     1.0000 0.17950  0.75800  0.00000  Biso   1.000  B 
  B189     1.0000 0.11140  0.78510  0.00000  Biso   1.000  B 
  B190     1.0000 0.24200  0.82050  0.00000  Biso   1.000  B 
  B191     1.0000 0.21490  0.88860  0.00000  Biso   1.000  B 
  B192     1.0000 0.23070  0.76930  0.00000  Biso   1.000  B 
  B193     1.0000 0.26930  0.73070  0.00000  Biso   1.000  B 
  B194     1.0000 0.16950  0.72490  0.00000  Biso   1.000  B 
  B195     1.0000 0.25800  0.67950  0.00000  Biso   1.000  B 
  B196     1.0000 0.27510  0.83050  0.00000  Biso   1.000  B 
  B197     1.0000 0.32050  0.74200  0.00000  Biso   1.000  B 
  B198     1.0000 0.29420  0.64470  0.00000  Biso   1.000  B 
  N6       1.0000 0.20577  0.65750  0.00399  Biso   1.000  N 
  B199     1.0000 0.35530  0.70580  0.00000  Biso   1.000  B 
  B200     1.0000 0.33050  0.77510  0.00000  Biso   1.000  B 
  B201     1.0000 0.34350  0.65650  0.00000  Biso   1.000  B 
  B202     1.0000 0.38280  0.61720  0.00000  Biso   1.000  B 
  B203     1.0000 0.28510  0.61140  0.00000  Biso   1.000  B 
  B204     1.0000 0.38860  0.71490  0.00000  Biso   1.000  B 
  B205     1.0000 0.36740  0.57190  0.00000  Biso   1.000  B 
  B206     1.0000 0.42810  0.63260  0.00000  Biso   1.000  B 
  H41      1.0000 0.20072  0.63414  0.97416  Biso   1.000  H 
  C16      1.0000 0.19785  0.63057  0.05141  Biso   1.000  C 
  C17      1.0000 0.14348  0.61403  0.05613  Biso   1.000  C 
  C18      1.0000 0.13923  0.56607  0.08551  Biso   1.000  C 
  H42      1.0000 0.16105  0.53769  0.06502  Biso   1.000  H 
  H43      1.0000 0.10142  0.55268  0.09268  Biso   1.000  H 
  H44      1.0000 0.15862  0.57200  0.11987  Biso   1.000  H 
  H45      1.0000 0.21024  0.65562  0.08174  Biso   1.000  H 
  H46      1.0000 0.22127  0.59774  0.05216  Biso   1.000  H 
  H47      1.0000 0.12705  0.60853  0.01824  Biso   1.000  H 
  H48      1.0000 0.12161  0.64376  0.07666  Biso   1.000  H 
  B207     1.0000 0.92810  0.86740  0.00000  Biso   1.000  B 
  B208     1.0000 0.88280  0.88280  0.00000  Biso   1.000  B 
  B209     1.0000 0.86740  0.92810  0.00000  Biso   1.000  B 
  B210     1.0000 0.84350  0.84350  0.00000  Biso   1.000  B 
  B211     1.0000 0.85530  0.79420  0.00000  Biso   1.000  B 
  B212     1.0000 0.79420  0.85530  0.00000  Biso   1.000  B 
  B213     1.0000 0.82050  0.75800  0.00000  Biso   1.000  B 
  B214     1.0000 0.88860  0.78510  0.00000  Biso   1.000  B 
  B215     1.0000 0.75800  0.82050  0.00000  Biso   1.000  B 
  B216     1.0000 0.78510  0.88860  0.00000  Biso   1.000  B 
  B217     1.0000 0.76930  0.76930  0.00000  Biso   1.000  B 
  B218     1.0000 0.73070  0.73070  0.00000  Biso   1.000  B 
  B219     1.0000 0.83050  0.72490  0.00000  Biso   1.000  B 
  B220     1.0000 0.74200  0.67950  0.00000  Biso   1.000  B 
  B221     1.0000 0.72490  0.83050  0.00000  Biso   1.000  B 
  B222     1.0000 0.67950  0.74200  0.00000  Biso   1.000  B 
  B223     1.0000 0.70580  0.64470  0.00000  Biso   1.000  B 
  N7       1.0000 0.79423  0.65750  0.99601  Biso   1.000  N 
  B224     1.0000 0.64470  0.70580  0.00000  Biso   1.000  B 
  B225     1.0000 0.66950  0.77510  0.00000  Biso   1.000  B 
  B226     1.0000 0.65650  0.65650  0.00000  Biso   1.000  B 
  B227     1.0000 0.61720  0.61720  0.00000  Biso   1.000  B 
  B228     1.0000 0.71490  0.61140  0.00000  Biso   1.000  B 
  B229     1.0000 0.61140  0.71490  0.00000  Biso   1.000  B 
  B230     1.0000 0.63260  0.57190  0.00000  Biso   1.000  B 
  B231     1.0000 0.57190  0.63260  0.00000  Biso   1.000  B 
  H49      1.0000 0.79928  0.63414  0.02584  Biso   1.000  H 
  C19      1.0000 0.80215  0.63057  0.94859  Biso   1.000  C 
  C20      1.0000 0.85652  0.61403  0.94387  Biso   1.000  C 
  C21      1.0000 0.86077  0.56607  0.91449  Biso   1.000  C 
  H50      1.0000 0.83895  0.53769  0.93498  Biso   1.000  H 
  H51      1.0000 0.89858  0.55268  0.90732  Biso   1.000  H 
  H52      1.0000 0.84138  0.57200  0.88013  Biso   1.000  H 
  H53      1.0000 0.78976  0.65562  0.91826  Biso   1.000  H 
  H54      1.0000 0.77873  0.59774  0.94784  Biso   1.000  H 
  H55      1.0000 0.87295  0.60853  0.98176  Biso   1.000  H 
  H56      1.0000 0.87839  0.64376  0.92334  Biso   1.000  H 
  B232     1.0000 0.92810  0.13260  0.00000  Biso   1.000  B 
  B233     1.0000 0.88280  0.11720  0.00000  Biso   1.000  B 
  B234     1.0000 0.86740  0.07190  0.00000  Biso   1.000  B 
  B235     1.0000 0.84350  0.15650  0.00000  Biso   1.000  B 
  B236     1.0000 0.85530  0.20580  0.00000  Biso   1.000  B 
  B237     1.0000 0.79420  0.14470  0.00000  Biso   1.000  B 
  B238     1.0000 0.82050  0.24200  0.00000  Biso   1.000  B 
  B239     1.0000 0.88860  0.21490  0.00000  Biso   1.000  B 
  B240     1.0000 0.75800  0.17950  0.00000  Biso   1.000  B 
  B241     1.0000 0.78510  0.11140  0.00000  Biso   1.000  B 
  B242     1.0000 0.76930  0.23070  0.00000  Biso   1.000  B 
  B243     1.0000 0.73070  0.26930  0.00000  Biso   1.000  B 
  B244     1.0000 0.83050  0.27510  0.00000  Biso   1.000  B 
  B245     1.0000 0.74200  0.32050  0.00000  Biso   1.000  B 
  B246     1.0000 0.72490  0.16950  0.00000  Biso   1.000  B 
  B247     1.0000 0.67950  0.25800  0.00000  Biso   1.000  B 
  B248     1.0000 0.70580  0.35530  0.00000  Biso   1.000  B 
  N8       1.0000 0.79423  0.34250  0.00399  Biso   1.000  N 
  B249     1.0000 0.64470  0.29420  0.00000  Biso   1.000  B 
  B250     1.0000 0.66950  0.22490  0.00000  Biso   1.000  B 
  B251     1.0000 0.65650  0.34350  0.00000  Biso   1.000  B 
  B252     1.0000 0.61720  0.38280  0.00000  Biso   1.000  B 
  B253     1.0000 0.71490  0.38860  0.00000  Biso   1.000  B 
  B254     1.0000 0.61140  0.28510  0.00000  Biso   1.000  B 
  B255     1.0000 0.63260  0.42810  0.00000  Biso   1.000  B 
  B256     1.0000 0.57190  0.36740  0.00000  Biso   1.000  B 
  H57      1.0000 0.79928  0.36586  0.97416  Biso   1.000  H 
  C22      1.0000 0.80215  0.36943  0.05141  Biso   1.000  C 
  C23      1.0000 0.85652  0.38597  0.05613  Biso   1.000  C 
  C24      1.0000 0.86077  0.43393  0.08551  Biso   1.000  C 
  H58      1.0000 0.83895  0.46231  0.06502  Biso   1.000  H 
  H59      1.0000 0.89858  0.44732  0.09268  Biso   1.000  H 
  H60      1.0000 0.84138  0.42800  0.11987  Biso   1.000  H 
  H61      1.0000 0.78976  0.34438  0.08174  Biso   1.000  H 
  H62      1.0000 0.77873  0.40226  0.05216  Biso   1.000  H 
  H63      1.0000 0.87295  0.39147  0.01824  Biso   1.000  H 
  H64      1.0000 0.87839  0.35623  0.07666  Biso   1.000  H 
  B257     1.0000 0.00000  0.07190  0.13260  Biso   1.000  B 
  B258     1.0000 0.00000  0.11720  0.11720  Biso   1.000  B 
  B259     1.0000 0.00000  0.13260  0.07190  Biso   1.000  B 
  B260     1.0000 0.00000  0.15650  0.15650  Biso   1.000  B 
  B261     1.0000 0.00000  0.14470  0.20580  Biso   1.000  B 
  B262     1.0000 0.00000  0.20580  0.14470  Biso   1.000  B 
  B263     1.0000 0.00000  0.17950  0.24200  Biso   1.000  B 
  B264     1.0000 0.00000  0.11140  0.21490  Biso   1.000  B 
  B265     1.0000 0.00000  0.24200  0.17950  Biso   1.000  B 
  B266     1.0000 0.00000  0.21490  0.11140  Biso   1.000  B 
  B267     1.0000 0.00000  0.23070  0.23070  Biso   1.000  B 
  B268     1.0000 0.00000  0.26930  0.26930  Biso   1.000  B 
  B269     1.0000 0.00000  0.16950  0.27510  Biso   1.000  B 
  B270     1.0000 0.00000  0.25800  0.32050  Biso   1.000  B 
  B271     1.0000 0.00000  0.27510  0.16950  Biso   1.000  B 
  B272     1.0000 0.00000  0.32050  0.25800  Biso   1.000  B 
  B273     1.0000 0.00000  0.29420  0.35530  Biso   1.000  B 
  N9       1.0000 0.02455  0.21004  0.33738  Biso   1.000  N 
  B274     1.0000 0.00000  0.35530  0.29420  Biso   1.000  B 
  B275     1.0000 0.00000  0.33050  0.22490  Biso   1.000  B 
  B276     1.0000 0.00000  0.34350  0.34350  Biso   1.000  B 
  B277     1.0000 0.00000  0.38280  0.38280  Biso   1.000  B 
  B278     1.0000 0.00000  0.28510  0.38860  Biso   1.000  B 
  B279     1.0000 0.00000  0.38860  0.28510  Biso   1.000  B 
  B280     1.0000 0.00000  0.36740  0.42810  Biso   1.000  B 
  B281     1.0000 0.00000  0.42810  0.36740  Biso   1.000  B 
  H65      1.0000 0.06064  0.21941  0.34844  Biso   1.000  H 
  C25      1.0000 0.99341  0.18490  0.37595  Biso   1.000  C 
  C26      1.0000 0.02273  0.17282  0.42199  Biso   1.000  C 
  C27      1.0000 0.07370  0.14852  0.41201  Biso   1.000  C 
  H66      1.0000 0.06790  0.12008  0.38248  Biso   1.000  H 
  H67      1.0000 0.08872  0.12844  0.44486  Biso   1.000  H 
  H68      1.0000 0.10188  0.17821  0.39936  Biso   1.000  H 
  H69      1.0000 0.97873  0.15220  0.35689  Biso   1.000  H 
  H70      1.0000 0.96093  0.20743  0.38764  Biso   1.000  H 
  H71      1.0000 0.99856  0.14369  0.43846  Biso   1.000  H 
  H72      1.0000 0.02600  0.20607  0.44719  Biso   1.000  H 
  B282     1.0000 0.00000  0.07190  0.86740  Biso   1.000  B 
  B283     1.0000 0.00000  0.11720  0.88280  Biso   1.000  B 
  B284     1.0000 0.00000  0.13260  0.92810  Biso   1.000  B 
  B285     1.0000 0.00000  0.15650  0.84350  Biso   1.000  B 
  B286     1.0000 0.00000  0.14470  0.79420  Biso   1.000  B 
  B287     1.0000 0.00000  0.20580  0.85530  Biso   1.000  B 
  B288     1.0000 0.00000  0.17950  0.75800  Biso   1.000  B 
  B289     1.0000 0.00000  0.11140  0.78510  Biso   1.000  B 
  B290     1.0000 0.00000  0.24200  0.82050  Biso   1.000  B 
  B291     1.0000 0.00000  0.21490  0.88860  Biso   1.000  B 
  B292     1.0000 0.00000  0.23070  0.76930  Biso   1.000  B 
  B293     1.0000 0.00000  0.26930  0.73070  Biso   1.000  B 
  B294     1.0000 0.00000  0.16950  0.72490  Biso   1.000  B 
  B295     1.0000 0.00000  0.25800  0.67950  Biso   1.000  B 
  B296     1.0000 0.00000  0.27510  0.83050  Biso   1.000  B 
  B297     1.0000 0.00000  0.32050  0.74200  Biso   1.000  B 
  B298     1.0000 0.00000  0.29420  0.64470  Biso   1.000  B 
  N10      1.0000 0.97545  0.21004  0.66262  Biso   1.000  N 
  B299     1.0000 0.00000  0.35530  0.70580  Biso   1.000  B 
  B300     1.0000 0.00000  0.33050  0.77510  Biso   1.000  B 
  B301     1.0000 0.00000  0.34350  0.65650  Biso   1.000  B 
  B302     1.0000 0.00000  0.38280  0.61720  Biso   1.000  B 
  B303     1.0000 0.00000  0.28510  0.61140  Biso   1.000  B 
  B304     1.0000 0.00000  0.38860  0.71490  Biso   1.000  B 
  B305     1.0000 0.00000  0.36740  0.57190  Biso   1.000  B 
  B306     1.0000 0.00000  0.42810  0.63260  Biso   1.000  B 
  H73      1.0000 0.93936  0.21941  0.65156  Biso   1.000  H 
  C28      1.0000 0.00659  0.18490  0.62405  Biso   1.000  C 
  C29      1.0000 0.97727  0.17282  0.57801  Biso   1.000  C 
  C30      1.0000 0.92631  0.14852  0.58799  Biso   1.000  C 
  H74      1.0000 0.93211  0.12008  0.61752  Biso   1.000  H 
  H75      1.0000 0.91128  0.12844  0.55514  Biso   1.000  H 
  H76      1.0000 0.89812  0.17821  0.60064  Biso   1.000  H 
  H77      1.0000 0.02127  0.15220  0.64311  Biso   1.000  H 
  H78      1.0000 0.03907  0.20743  0.61236  Biso   1.000  H 
  H79      1.0000 0.00144  0.14369  0.56154  Biso   1.000  H 
  H80      1.0000 0.97400  0.20607  0.55281  Biso   1.000  H 
  B307     1.0000 0.00000  0.92810  0.86740  Biso   1.000  B 
  B308     1.0000 0.00000  0.88280  0.88280  Biso   1.000  B 
  B309     1.0000 0.00000  0.86740  0.92810  Biso   1.000  B 
  B310     1.0000 0.00000  0.84350  0.84350  Biso   1.000  B 
  B311     1.0000 0.00000  0.85530  0.79420  Biso   1.000  B 
  B312     1.0000 0.00000  0.79420  0.85530  Biso   1.000  B 
  B313     1.0000 0.00000  0.82050  0.75800  Biso   1.000  B 
  B314     1.0000 0.00000  0.88860  0.78510  Biso   1.000  B 
  B315     1.0000 0.00000  0.75800  0.82050  Biso   1.000  B 
  B316     1.0000 0.00000  0.78510  0.88860  Biso   1.000  B 
  B317     1.0000 0.00000  0.76930  0.76930  Biso   1.000  B 
  B318     1.0000 0.00000  0.73070  0.73070  Biso   1.000  B 
  B319     1.0000 0.00000  0.83050  0.72490  Biso   1.000  B 
  B320     1.0000 0.00000  0.74200  0.67950  Biso   1.000  B 
  B321     1.0000 0.00000  0.72490  0.83050  Biso   1.000  B 
  B322     1.0000 0.00000  0.67950  0.74200  Biso   1.000  B 
  B323     1.0000 0.00000  0.70580  0.64470  Biso   1.000  B 
  N11      1.0000 0.02455  0.78996  0.66262  Biso   1.000  N 
  B324     1.0000 0.00000  0.64470  0.70580  Biso   1.000  B 
  B325     1.0000 0.00000  0.66950  0.77510  Biso   1.000  B 
  B326     1.0000 0.00000  0.65650  0.65650  Biso   1.000  B 
  B327     1.0000 0.00000  0.61720  0.61720  Biso   1.000  B 
  B328     1.0000 0.00000  0.71490  0.61140  Biso   1.000  B 
  B329     1.0000 0.00000  0.61140  0.71490  Biso   1.000  B 
  B330     1.0000 0.00000  0.63260  0.57190  Biso   1.000  B 
  B331     1.0000 0.00000  0.57190  0.63260  Biso   1.000  B 
  H81      1.0000 0.06064  0.78059  0.65156  Biso   1.000  H 
  C31      1.0000 0.99341  0.81510  0.62405  Biso   1.000  C 
  C32      1.0000 0.02273  0.82718  0.57801  Biso   1.000  C 
  C33      1.0000 0.07370  0.85148  0.58799  Biso   1.000  C 
  H82      1.0000 0.06790  0.87992  0.61752  Biso   1.000  H 
  H83      1.0000 0.08872  0.87156  0.55514  Biso   1.000  H 
  H84      1.0000 0.10188  0.82179  0.60064  Biso   1.000  H 
  H85      1.0000 0.97873  0.84780  0.64311  Biso   1.000  H 
  H86      1.0000 0.96093  0.79257  0.61236  Biso   1.000  H 
  H87      1.0000 0.99856  0.85631  0.56154  Biso   1.000  H 
  H88      1.0000 0.02600  0.79393  0.55281  Biso   1.000  H 
  B332     1.0000 0.00000  0.92810  0.13260  Biso   1.000  B 
  B333     1.0000 0.00000  0.88280  0.11720  Biso   1.000  B 
  B334     1.0000 0.00000  0.86740  0.07190  Biso   1.000  B 
  B335     1.0000 0.00000  0.84350  0.15650  Biso   1.000  B 
  B336     1.0000 0.00000  0.85530  0.20580  Biso   1.000  B 
  B337     1.0000 0.00000  0.79420  0.14470  Biso   1.000  B 
  B338     1.0000 0.00000  0.82050  0.24200  Biso   1.000  B 
  B339     1.0000 0.00000  0.88860  0.21490  Biso   1.000  B 
  B340     1.0000 0.00000  0.75800  0.17950  Biso   1.000  B 
  B341     1.0000 0.00000  0.78510  0.11140  Biso   1.000  B 
  B342     1.0000 0.00000  0.76930  0.23070  Biso   1.000  B 
  B343     1.0000 0.00000  0.73070  0.26930  Biso   1.000  B 
  B344     1.0000 0.00000  0.83050  0.27510  Biso   1.000  B 
  B345     1.0000 0.00000  0.74200  0.32050  Biso   1.000  B 
  B346     1.0000 0.00000  0.72490  0.16950  Biso   1.000  B 
  B347     1.0000 0.00000  0.67950  0.25800  Biso   1.000  B 
  B348     1.0000 0.00000  0.70580  0.35530  Biso   1.000  B 
  N12      1.0000 0.97545  0.78996  0.33738  Biso   1.000  N 
  B349     1.0000 0.00000  0.64470  0.29420  Biso   1.000  B 
  B350     1.0000 0.00000  0.66950  0.22490  Biso   1.000  B 
  B351     1.0000 0.00000  0.65650  0.34350  Biso   1.000  B 
  B352     1.0000 0.00000  0.61720  0.38280  Biso   1.000  B 
  B353     1.0000 0.00000  0.71490  0.38860  Biso   1.000  B 
  B354     1.0000 0.00000  0.61140  0.28510  Biso   1.000  B 
  B355     1.0000 0.00000  0.63260  0.42810  Biso   1.000  B 
  B356     1.0000 0.00000  0.57190  0.36740  Biso   1.000  B 
  H89      1.0000 0.93936  0.78059  0.34844  Biso   1.000  H 
  C34      1.0000 0.00659  0.81510  0.37595  Biso   1.000  C 
  C35      1.0000 0.97727  0.82718  0.42199  Biso   1.000  C 
  C36      1.0000 0.92631  0.85148  0.41201  Biso   1.000  C 
  H90      1.0000 0.93211  0.87992  0.38248  Biso   1.000  H 
  H91      1.0000 0.91128  0.87156  0.44486  Biso   1.000  H 
  H92      1.0000 0.89812  0.82179  0.39936  Biso   1.000  H 
  H93      1.0000 0.02127  0.84780  0.35689  Biso   1.000  H 
  H94      1.0000 0.03907  0.79257  0.38764  Biso   1.000  H 
  H95      1.0000 0.00144  0.85631  0.43846  Biso   1.000  H 
  H96      1.0000 0.97400  0.79393  0.44719  Biso   1.000  H 
  B357     1.0000 0.13260  0.50000  0.57190  Biso   1.000  B 
  B358     1.0000 0.11720  0.50000  0.61720  Biso   1.000  B 
  B359     1.0000 0.07190  0.50000  0.63260  Biso   1.000  B 
  B360     1.0000 0.15650  0.50000  0.65650  Biso   1.000  B 
  B361     1.0000 0.20580  0.50000  0.64470  Biso   1.000  B 
  B362     1.0000 0.14470  0.50000  0.70580  Biso   1.000  B 
  B363     1.0000 0.24200  0.50000  0.67950  Biso   1.000  B 
  B364     1.0000 0.21490  0.50000  0.61140  Biso   1.000  B 
  B365     1.0000 0.17950  0.50000  0.74200  Biso   1.000  B 
  B366     1.0000 0.11140  0.50000  0.71490  Biso   1.000  B 
  B367     1.0000 0.23070  0.50000  0.73070  Biso   1.000  B 
  B368     1.0000 0.26930  0.50000  0.76930  Biso   1.000  B 
  B369     1.0000 0.27510  0.50000  0.66950  Biso   1.000  B 
  B370     1.0000 0.32050  0.50000  0.75800  Biso   1.000  B 
  B371     1.0000 0.16950  0.50000  0.77510  Biso   1.000  B 
  B372     1.0000 0.25800  0.50000  0.82050  Biso   1.000  B 
  B373     1.0000 0.35530  0.50000  0.79420  Biso   1.000  B 
  N13      1.0000 0.34251  0.49511  0.70566  Biso   1.000  N 
  B374     1.0000 0.29420  0.50000  0.85530  Biso   1.000  B 
  B375     1.0000 0.22490  0.50000  0.83050  Biso   1.000  B 
  B376     1.0000 0.34350  0.50000  0.84350  Biso   1.000  B 
  B377     1.0000 0.38280  0.50000  0.88280  Biso   1.000  B 
  B378     1.0000 0.38860  0.50000  0.78510  Biso   1.000  B 
  B379     1.0000 0.28510  0.50000  0.88860  Biso   1.000  B 
  B380     1.0000 0.42810  0.50000  0.86740  Biso   1.000  B 
  B381     1.0000 0.36740  0.50000  0.92810  Biso   1.000  B 
  H97      1.0000 0.36507  0.52540  0.69977  Biso   1.000  H 
  C37      1.0000 0.37081  0.44827  0.69872  Biso   1.000  C 
  C38      1.0000 0.38540  0.44139  0.64405  Biso   1.000  C 
  C39      1.0000 0.43402  0.41301  0.63933  Biso   1.000  C 
  H98      1.0000 0.46255  0.43451  0.65979  Biso   1.000  H 
  H99      1.0000 0.44656  0.40493  0.60138  Biso   1.000  H 
  H100     1.0000 0.42922  0.37907  0.65976  Biso   1.000  H 
  H101     1.0000 0.34767  0.41758  0.71354  Biso   1.000  H 
  H102     1.0000 0.40476  0.44997  0.72046  Biso   1.000  H 
  H103     1.0000 0.38916  0.47855  0.62579  Biso   1.000  H 
  H104     1.0000 0.35538  0.41913  0.62433  Biso   1.000  H 
  B382     1.0000 0.86740  0.50000  0.57190  Biso   1.000  B 
  B383     1.0000 0.88280  0.50000  0.61720  Biso   1.000  B 
  B384     1.0000 0.92810  0.50000  0.63260  Biso   1.000  B 
  B385     1.0000 0.84350  0.50000  0.65650  Biso   1.000  B 
  B386     1.0000 0.79420  0.50000  0.64470  Biso   1.000  B 
  B387     1.0000 0.85530  0.50000  0.70580  Biso   1.000  B 
  B388     1.0000 0.75800  0.50000  0.67950  Biso   1.000  B 
  B389     1.0000 0.78510  0.50000  0.61140  Biso   1.000  B 
  B390     1.0000 0.82050  0.50000  0.74200  Biso   1.000  B 
  B391     1.0000 0.88860  0.50000  0.71490  Biso   1.000  B 
  B392     1.0000 0.76930  0.50000  0.73070  Biso   1.000  B 
  B393     1.0000 0.73070  0.50000  0.76930  Biso   1.000  B 
  B394     1.0000 0.72490  0.50000  0.66950  Biso   1.000  B 
  B395     1.0000 0.67950  0.50000  0.75800  Biso   1.000  B 
  B396     1.0000 0.83050  0.50000  0.77510  Biso   1.000  B 
  B397     1.0000 0.74200  0.50000  0.82050  Biso   1.000  B 
  B398     1.0000 0.64470  0.50000  0.79420  Biso   1.000  B 
  N14      1.0000 0.65749  0.50489  0.70566  Biso   1.000  N 
  B399     1.0000 0.70580  0.50000  0.85530  Biso   1.000  B 
  B400     1.0000 0.77510  0.50000  0.83050  Biso   1.000  B 
  B401     1.0000 0.65650  0.50000  0.84350  Biso   1.000  B 
  B402     1.0000 0.61720  0.50000  0.88280  Biso   1.000  B 
  B403     1.0000 0.61140  0.50000  0.78510  Biso   1.000  B 
  B404     1.0000 0.71490  0.50000  0.88860  Biso   1.000  B 
  B405     1.0000 0.57190  0.50000  0.86740  Biso   1.000  B 
  B406     1.0000 0.63260  0.50000  0.92810  Biso   1.000  B 
  H105     1.0000 0.63493  0.47460  0.69977  Biso   1.000  H 
  C40      1.0000 0.62919  0.55173  0.69872  Biso   1.000  C 
  C41      1.0000 0.61460  0.55861  0.64405  Biso   1.000  C 
  C42      1.0000 0.56598  0.58699  0.63933  Biso   1.000  C 
  H106     1.0000 0.53745  0.56549  0.65979  Biso   1.000  H 
  H107     1.0000 0.55344  0.59507  0.60138  Biso   1.000  H 
  H108     1.0000 0.57078  0.62093  0.65976  Biso   1.000  H 
  H109     1.0000 0.65233  0.58242  0.71354  Biso   1.000  H 
  H110     1.0000 0.59524  0.55003  0.72046  Biso   1.000  H 
  H111     1.0000 0.61084  0.52145  0.62579  Biso   1.000  H 
  H112     1.0000 0.64462  0.58087  0.62433  Biso   1.000  H 
  B407     1.0000 0.86740  0.50000  0.42810  Biso   1.000  B 
  B408     1.0000 0.88280  0.50000  0.38280  Biso   1.000  B 
  B409     1.0000 0.92810  0.50000  0.36740  Biso   1.000  B 
  B410     1.0000 0.84350  0.50000  0.34350  Biso   1.000  B 
  B411     1.0000 0.79420  0.50000  0.35530  Biso   1.000  B 
  B412     1.0000 0.85530  0.50000  0.29420  Biso   1.000  B 
  B413     1.0000 0.75800  0.50000  0.32050  Biso   1.000  B 
  B414     1.0000 0.78510  0.50000  0.38860  Biso   1.000  B 
  B415     1.0000 0.82050  0.50000  0.25800  Biso   1.000  B 
  B416     1.0000 0.88860  0.50000  0.28510  Biso   1.000  B 
  B417     1.0000 0.76930  0.50000  0.26930  Biso   1.000  B 
  B418     1.0000 0.73070  0.50000  0.23070  Biso   1.000  B 
  B419     1.0000 0.72490  0.50000  0.33050  Biso   1.000  B 
  B420     1.0000 0.67950  0.50000  0.24200  Biso   1.000  B 
  B421     1.0000 0.83050  0.50000  0.22490  Biso   1.000  B 
  B422     1.0000 0.74200  0.50000  0.17950  Biso   1.000  B 
  B423     1.0000 0.64470  0.50000  0.20580  Biso   1.000  B 
  N15      1.0000 0.65749  0.49511  0.29434  Biso   1.000  N 
  B424     1.0000 0.70580  0.50000  0.14470  Biso   1.000  B 
  B425     1.0000 0.77510  0.50000  0.16950  Biso   1.000  B 
  B426     1.0000 0.65650  0.50000  0.15650  Biso   1.000  B 
  B427     1.0000 0.61720  0.50000  0.11720  Biso   1.000  B 
  B428     1.0000 0.61140  0.50000  0.21490  Biso   1.000  B 
  B429     1.0000 0.71490  0.50000  0.11140  Biso   1.000  B 
  B430     1.0000 0.57190  0.50000  0.13260  Biso   1.000  B 
  B431     1.0000 0.63260  0.50000  0.07190  Biso   1.000  B 
  H113     1.0000 0.63493  0.52540  0.30023  Biso   1.000  H 
  C43      1.0000 0.62919  0.44827  0.30128  Biso   1.000  C 
  C44      1.0000 0.61460  0.44139  0.35594  Biso   1.000  C 
  C45      1.0000 0.56598  0.41301  0.36067  Biso   1.000  C 
  H114     1.0000 0.53745  0.43451  0.34021  Biso   1.000  H 
  H115     1.0000 0.55344  0.40493  0.39862  Biso   1.000  H 
  H116     1.0000 0.57078  0.37907  0.34023  Biso   1.000  H 
  H117     1.0000 0.65233  0.41758  0.28646  Biso   1.000  H 
  H118     1.0000 0.59524  0.44997  0.27954  Biso   1.000  H 
  H119     1.0000 0.61084  0.47855  0.37421  Biso   1.000  H 
  H120     1.0000 0.64462  0.41913  0.37567  Biso   1.000  H 
  B432     1.0000 0.13260  0.50000  0.42810  Biso   1.000  B 
  B433     1.0000 0.11720  0.50000  0.38280  Biso   1.000  B 
  B434     1.0000 0.07190  0.50000  0.36740  Biso   1.000  B 
  B435     1.0000 0.15650  0.50000  0.34350  Biso   1.000  B 
  B436     1.0000 0.20580  0.50000  0.35530  Biso   1.000  B 
  B437     1.0000 0.14470  0.50000  0.29420  Biso   1.000  B 
  B438     1.0000 0.24200  0.50000  0.32050  Biso   1.000  B 
  B439     1.0000 0.21490  0.50000  0.38860  Biso   1.000  B 
  B440     1.0000 0.17950  0.50000  0.25800  Biso   1.000  B 
  B441     1.0000 0.11140  0.50000  0.28510  Biso   1.000  B 
  B442     1.0000 0.23070  0.50000  0.26930  Biso   1.000  B 
  B443     1.0000 0.26930  0.50000  0.23070  Biso   1.000  B 
  B444     1.0000 0.27510  0.50000  0.33050  Biso   1.000  B 
  B445     1.0000 0.32050  0.50000  0.24200  Biso   1.000  B 
  B446     1.0000 0.16950  0.50000  0.22490  Biso   1.000  B 
  B447     1.0000 0.25800  0.50000  0.17950  Biso   1.000  B 
  B448     1.0000 0.35530  0.50000  0.20580  Biso   1.000  B 
  N16      1.0000 0.34251  0.50489  0.29434  Biso   1.000  N 
  B449     1.0000 0.29420  0.50000  0.14470  Biso   1.000  B 
  B450     1.0000 0.22490  0.50000  0.16950  Biso   1.000  B 
  B451     1.0000 0.34350  0.50000  0.15650  Biso   1.000  B 
  B452     1.0000 0.38280  0.50000  0.11720  Biso   1.000  B 
  B453     1.0000 0.38860  0.50000  0.21490  Biso   1.000  B 
  B454     1.0000 0.28510  0.50000  0.11140  Biso   1.000  B 
  B455     1.0000 0.42810  0.50000  0.13260  Biso   1.000  B 
  B456     1.0000 0.36740  0.50000  0.07190  Biso   1.000  B 
  H121     1.0000 0.36507  0.47460  0.30023  Biso   1.000  H 
  C46      1.0000 0.37081  0.55173  0.30128  Biso   1.000  C 
  C47      1.0000 0.38540  0.55861  0.35594  Biso   1.000  C 
  C48      1.0000 0.43402  0.58699  0.36067  Biso   1.000  C 
  H122     1.0000 0.46255  0.56549  0.34021  Biso   1.000  H 
  H123     1.0000 0.44656  0.59507  0.39862  Biso   1.000  H 
  H124     1.0000 0.42922  0.62093  0.34023  Biso   1.000  H 
  H125     1.0000 0.34767  0.58242  0.28646  Biso   1.000  H 
  H126     1.0000 0.40476  0.55003  0.27954  Biso   1.000  H 
  H127     1.0000 0.38916  0.52145  0.37421  Biso   1.000  H 
  H128     1.0000 0.35538  0.58087  0.37567  Biso   1.000  H 
  B457     1.0000 0.07190  0.63260  0.50000  Biso   1.000  B 
  B458     1.0000 0.11720  0.61720  0.50000  Biso   1.000  B 
  B459     1.0000 0.13260  0.57190  0.50000  Biso   1.000  B 
  B460     1.0000 0.15650  0.65650  0.50000  Biso   1.000  B 
  B461     1.0000 0.14470  0.70580  0.50000  Biso   1.000  B 
  B462     1.0000 0.20580  0.64470  0.50000  Biso   1.000  B 
  B463     1.0000 0.17950  0.74200  0.50000  Biso   1.000  B 
  B464     1.0000 0.11140  0.71490  0.50000  Biso   1.000  B 
  B465     1.0000 0.24200  0.67950  0.50000  Biso   1.000  B 
  B466     1.0000 0.21490  0.61140  0.50000  Biso   1.000  B 
  B467     1.0000 0.23070  0.73070  0.50000  Biso   1.000  B 
  B468     1.0000 0.26930  0.76930  0.50000  Biso   1.000  B 
  B469     1.0000 0.16950  0.77510  0.50000  Biso   1.000  B 
  B470     1.0000 0.25800  0.82050  0.50000  Biso   1.000  B 
  B471     1.0000 0.27510  0.66950  0.50000  Biso   1.000  B 
  B472     1.0000 0.32050  0.75800  0.50000  Biso   1.000  B 
  B473     1.0000 0.29420  0.85530  0.50000  Biso   1.000  B 
  N17      1.0000 0.20602  0.84097  0.49330  Biso   1.000  N 
  B474     1.0000 0.35530  0.79420  0.50000  Biso   1.000  B 
  B475     1.0000 0.33050  0.72490  0.50000  Biso   1.000  B 
  B476     1.0000 0.34350  0.84350  0.50000  Biso   1.000  B 
  B477     1.0000 0.38280  0.88280  0.50000  Biso   1.000  B 
  B478     1.0000 0.28510  0.88860  0.50000  Biso   1.000  B 
  B479     1.0000 0.38860  0.78510  0.50000  Biso   1.000  B 
  B480     1.0000 0.36740  0.92810  0.50000  Biso   1.000  B 
  B481     1.0000 0.42810  0.86740  0.50000  Biso   1.000  B 
  H129     1.0000 0.20015  0.87025  0.51890  Biso   1.000  H 
  C49      1.0000 0.20184  0.85726  0.44205  Biso   1.000  C 
  C50      1.0000 0.14868  0.87312  0.43118  Biso   1.000  C 
  C51      1.0000 0.12901  0.92148  0.45582  Biso   1.000  C 
  H130     1.0000 0.11916  0.91451  0.49557  Biso   1.000  H 
  H131     1.0000 0.09492  0.93452  0.43524  Biso   1.000  H 
  H132     1.0000 0.15841  0.95180  0.45748  Biso   1.000  H 
  H133     1.0000 0.21412  0.82703  0.41717  Biso   1.000  H 
  H134     1.0000 0.22364  0.89006  0.43419  Biso   1.000  H 
  H135     1.0000 0.12408  0.83982  0.43569  Biso   1.000  H 
  H136     1.0000 0.14654  0.88265  0.39049  Biso   1.000  H 
  B482     1.0000 0.07190  0.36740  0.50000  Biso   1.000  B 
  B483     1.0000 0.11720  0.38280  0.50000  Biso   1.000  B 
  B484     1.0000 0.13260  0.42810  0.50000  Biso   1.000  B 
  B485     1.0000 0.15650  0.34350  0.50000  Biso   1.000  B 
  B486     1.0000 0.14470  0.29420  0.50000  Biso   1.000  B 
  B487     1.0000 0.20580  0.35530  0.50000  Biso   1.000  B 
  B488     1.0000 0.17950  0.25800  0.50000  Biso   1.000  B 
  B489     1.0000 0.11140  0.28510  0.50000  Biso   1.000  B 
  B490     1.0000 0.24200  0.32050  0.50000  Biso   1.000  B 
  B491     1.0000 0.21490  0.38860  0.50000  Biso   1.000  B 
  B492     1.0000 0.23070  0.26930  0.50000  Biso   1.000  B 
  B493     1.0000 0.26930  0.23070  0.50000  Biso   1.000  B 
  B494     1.0000 0.16950  0.22490  0.50000  Biso   1.000  B 
  B495     1.0000 0.25800  0.17950  0.50000  Biso   1.000  B 
  B496     1.0000 0.27510  0.33050  0.50000  Biso   1.000  B 
  B497     1.0000 0.32050  0.24200  0.50000  Biso   1.000  B 
  B498     1.0000 0.29420  0.14470  0.50000  Biso   1.000  B 
  N18      1.0000 0.20602  0.15903  0.50670  Biso   1.000  N 
  B499     1.0000 0.35530  0.20580  0.50000  Biso   1.000  B 
  B500     1.0000 0.33050  0.27510  0.50000  Biso   1.000  B 
  B501     1.0000 0.34350  0.15650  0.50000  Biso   1.000  B 
  B502     1.0000 0.38280  0.11720  0.50000  Biso   1.000  B 
  B503     1.0000 0.28510  0.11140  0.50000  Biso   1.000  B 
  B504     1.0000 0.38860  0.21490  0.50000  Biso   1.000  B 
  B505     1.0000 0.36740  0.07190  0.50000  Biso   1.000  B 
  B506     1.0000 0.42810  0.13260  0.50000  Biso   1.000  B 
  H137     1.0000 0.20015  0.12975  0.48110  Biso   1.000  H 
  C52      1.0000 0.20184  0.14274  0.55795  Biso   1.000  C 
  C53      1.0000 0.14868  0.12688  0.56882  Biso   1.000  C 
  C54      1.0000 0.12901  0.07852  0.54418  Biso   1.000  C 
  H138     1.0000 0.11916  0.08549  0.50443  Biso   1.000  H 
  H139     1.0000 0.09492  0.06548  0.56476  Biso   1.000  H 
  H140     1.0000 0.15841  0.04821  0.54252  Biso   1.000  H 
  H141     1.0000 0.21412  0.17297  0.58283  Biso   1.000  H 
  H142     1.0000 0.22364  0.10994  0.56581  Biso   1.000  H 
  H143     1.0000 0.12408  0.16018  0.56431  Biso   1.000  H 
  H144     1.0000 0.14654  0.11735  0.60951  Biso   1.000  H 
  B507     1.0000 0.92810  0.36740  0.50000  Biso   1.000  B 
  B508     1.0000 0.88280  0.38280  0.50000  Biso   1.000  B 
  B509     1.0000 0.86740  0.42810  0.50000  Biso   1.000  B 
  B510     1.0000 0.84350  0.34350  0.50000  Biso   1.000  B 
  B511     1.0000 0.85530  0.29420  0.50000  Biso   1.000  B 
  B512     1.0000 0.79420  0.35530  0.50000  Biso   1.000  B 
  B513     1.0000 0.82050  0.25800  0.50000  Biso   1.000  B 
  B514     1.0000 0.88860  0.28510  0.50000  Biso   1.000  B 
  B515     1.0000 0.75800  0.32050  0.50000  Biso   1.000  B 
  B516     1.0000 0.78510  0.38860  0.50000  Biso   1.000  B 
  B517     1.0000 0.76930  0.26930  0.50000  Biso   1.000  B 
  B518     1.0000 0.73070  0.23070  0.50000  Biso   1.000  B 
  B519     1.0000 0.83050  0.22490  0.50000  Biso   1.000  B 
  B520     1.0000 0.74200  0.17950  0.50000  Biso   1.000  B 
  B521     1.0000 0.72490  0.33050  0.50000  Biso   1.000  B 
  B522     1.0000 0.67950  0.24200  0.50000  Biso   1.000  B 
  B523     1.0000 0.70580  0.14470  0.50000  Biso   1.000  B 
  N19      1.0000 0.79398  0.15903  0.49330  Biso   1.000  N 
  B524     1.0000 0.64470  0.20580  0.50000  Biso   1.000  B 
  B525     1.0000 0.66950  0.27510  0.50000  Biso   1.000  B 
  B526     1.0000 0.65650  0.15650  0.50000  Biso   1.000  B 
  B527     1.0000 0.61720  0.11720  0.50000  Biso   1.000  B 
  B528     1.0000 0.71490  0.11140  0.50000  Biso   1.000  B 
  B529     1.0000 0.61140  0.21490  0.50000  Biso   1.000  B 
  B530     1.0000 0.63260  0.07190  0.50000  Biso   1.000  B 
  B531     1.0000 0.57190  0.13260  0.50000  Biso   1.000  B 
  H145     1.0000 0.79985  0.12975  0.51890  Biso   1.000  H 
  C55      1.0000 0.79816  0.14274  0.44205  Biso   1.000  C 
  C56      1.0000 0.85132  0.12688  0.43118  Biso   1.000  C 
  C57      1.0000 0.87099  0.07852  0.45582  Biso   1.000  C 
  H146     1.0000 0.88084  0.08549  0.49557  Biso   1.000  H 
  H147     1.0000 0.90508  0.06548  0.43524  Biso   1.000  H 
  H148     1.0000 0.84159  0.04821  0.45748  Biso   1.000  H 
  H149     1.0000 0.78588  0.17297  0.41717  Biso   1.000  H 
  H150     1.0000 0.77636  0.10994  0.43419  Biso   1.000  H 
  H151     1.0000 0.87591  0.16018  0.43569  Biso   1.000  H 
  H152     1.0000 0.85346  0.11735  0.39049  Biso   1.000  H 
  B532     1.0000 0.92810  0.63260  0.50000  Biso   1.000  B 
  B533     1.0000 0.88280  0.61720  0.50000  Biso   1.000  B 
  B534     1.0000 0.86740  0.57190  0.50000  Biso   1.000  B 
  B535     1.0000 0.84350  0.65650  0.50000  Biso   1.000  B 
  B536     1.0000 0.85530  0.70580  0.50000  Biso   1.000  B 
  B537     1.0000 0.79420  0.64470  0.50000  Biso   1.000  B 
  B538     1.0000 0.82050  0.74200  0.50000  Biso   1.000  B 
  B539     1.0000 0.88860  0.71490  0.50000  Biso   1.000  B 
  B540     1.0000 0.75800  0.67950  0.50000  Biso   1.000  B 
  B541     1.0000 0.78510  0.61140  0.50000  Biso   1.000  B 
  B542     1.0000 0.76930  0.73070  0.50000  Biso   1.000  B 
  B543     1.0000 0.73070  0.76930  0.50000  Biso   1.000  B 
  B544     1.0000 0.83050  0.77510  0.50000  Biso   1.000  B 
  B545     1.0000 0.74200  0.82050  0.50000  Biso   1.000  B 
  B546     1.0000 0.72490  0.66950  0.50000  Biso   1.000  B 
  B547     1.0000 0.67950  0.75800  0.50000  Biso   1.000  B 
  B548     1.0000 0.70580  0.85530  0.50000  Biso   1.000  B 
  N20      1.0000 0.79398  0.84097  0.50670  Biso   1.000  N 
  B549     1.0000 0.64470  0.79420  0.50000  Biso   1.000  B 
  B550     1.0000 0.66950  0.72490  0.50000  Biso   1.000  B 
  B551     1.0000 0.65650  0.84350  0.50000  Biso   1.000  B 
  B552     1.0000 0.61720  0.88280  0.50000  Biso   1.000  B 
  B553     1.0000 0.71490  0.88860  0.50000  Biso   1.000  B 
  B554     1.0000 0.61140  0.78510  0.50000  Biso   1.000  B 
  B555     1.0000 0.63260  0.92810  0.50000  Biso   1.000  B 
  B556     1.0000 0.57190  0.86740  0.50000  Biso   1.000  B 
  H153     1.0000 0.79985  0.87025  0.48110  Biso   1.000  H 
  C58      1.0000 0.79816  0.85726  0.55795  Biso   1.000  C 
  C59      1.0000 0.85132  0.87312  0.56882  Biso   1.000  C 
  C60      1.0000 0.87099  0.92148  0.54418  Biso   1.000  C 
  H154     1.0000 0.88084  0.91451  0.50443  Biso   1.000  H 
  H155     1.0000 0.90508  0.93452  0.56476  Biso   1.000  H 
  H156     1.0000 0.84159  0.95180  0.54252  Biso   1.000  H 
  H157     1.0000 0.78588  0.82703  0.58283  Biso   1.000  H 
  H158     1.0000 0.77636  0.89006  0.56581  Biso   1.000  H 
  H159     1.0000 0.87591  0.83982  0.56431  Biso   1.000  H 
  H160     1.0000 0.85346  0.88265  0.60951  Biso   1.000  H 
  B557     1.0000 0.50000  0.07190  0.63260  Biso   1.000  B 
  B558     1.0000 0.50000  0.11720  0.61720  Biso   1.000  B 
  B559     1.0000 0.50000  0.13260  0.57190  Biso   1.000  B 
  B560     1.0000 0.50000  0.15650  0.65650  Biso   1.000  B 
  B561     1.0000 0.50000  0.14470  0.70580  Biso   1.000  B 
  B562     1.0000 0.50000  0.20580  0.64470  Biso   1.000  B 
  B563     1.0000 0.50000  0.17950  0.74200  Biso   1.000  B 
  B564     1.0000 0.50000  0.11140  0.71490  Biso   1.000  B 
  B565     1.0000 0.50000  0.24200  0.67950  Biso   1.000  B 
  B566     1.0000 0.50000  0.21490  0.61140  Biso   1.000  B 
  B567     1.0000 0.50000  0.23070  0.73070  Biso   1.000  B 
  B568     1.0000 0.50000  0.26930  0.76930  Biso   1.000  B 
  B569     1.0000 0.50000  0.16950  0.77510  Biso   1.000  B 
  B570     1.0000 0.50000  0.25800  0.82050  Biso   1.000  B 
  B571     1.0000 0.50000  0.27510  0.66950  Biso   1.000  B 
  B572     1.0000 0.50000  0.32050  0.75800  Biso   1.000  B 
  B573     1.0000 0.50000  0.29420  0.85530  Biso   1.000  B 
  N21      1.0000 0.49378  0.20594  0.84101  Biso   1.000  N 
  B574     1.0000 0.50000  0.35530  0.79420  Biso   1.000  B 
  B575     1.0000 0.50000  0.33050  0.72490  Biso   1.000  B 
  B576     1.0000 0.50000  0.34350  0.84350  Biso   1.000  B 
  B577     1.0000 0.50000  0.38280  0.88280  Biso   1.000  B 
  B578     1.0000 0.50000  0.28510  0.88860  Biso   1.000  B 
  B579     1.0000 0.50000  0.38860  0.78510  Biso   1.000  B 
  B580     1.0000 0.50000  0.36740  0.92810  Biso   1.000  B 
  B581     1.0000 0.50000  0.42810  0.86740  Biso   1.000  B 
  H161     1.0000 0.51947  0.20010  0.87019  Biso   1.000  H 
  C61      1.0000 0.44266  0.20133  0.85740  Biso   1.000  C 
  C62      1.0000 0.43200  0.14798  0.87252  Biso   1.000  C 
  C63      1.0000 0.45898  0.12656  0.91904  Biso   1.000  C 
  H162     1.0000 0.49532  0.11232  0.90846  Biso   1.000  H 
  H163     1.0000 0.43600  0.09529  0.93493  Biso   1.000  H 
  H164     1.0000 0.46612  0.15629  0.94838  Biso   1.000  H 
  H165     1.0000 0.41765  0.21402  0.82748  Biso   1.000  H 
  H166     1.0000 0.43508  0.22263  0.89063  Biso   1.000  H 
  H167     1.0000 0.43466  0.12431  0.83828  Biso   1.000  H 
  H168     1.0000 0.39175  0.14600  0.88385  Biso   1.000  H 
  B582     1.0000 0.50000  0.07190  0.36740  Biso   1.000  B 
  B583     1.0000 0.50000  0.11720  0.38280  Biso   1.000  B 
  B584     1.0000 0.50000  0.13260  0.42810  Biso   1.000  B 
  B585     1.0000 0.50000  0.15650  0.34350  Biso   1.000  B 
  B586     1.0000 0.50000  0.14470  0.29420  Biso   1.000  B 
  B587     1.0000 0.50000  0.20580  0.35530  Biso   1.000  B 
  B588     1.0000 0.50000  0.17950  0.25800  Biso   1.000  B 
  B589     1.0000 0.50000  0.11140  0.28510  Biso   1.000  B 
  B590     1.0000 0.50000  0.24200  0.32050  Biso   1.000  B 
  B591     1.0000 0.50000  0.21490  0.38860  Biso   1.000  B 
  B592     1.0000 0.50000  0.23070  0.26930  Biso   1.000  B 
  B593     1.0000 0.50000  0.26930  0.23070  Biso   1.000  B 
  B594     1.0000 0.50000  0.16950  0.22490  Biso   1.000  B 
  B595     1.0000 0.50000  0.25800  0.17950  Biso   1.000  B 
  B596     1.0000 0.50000  0.27510  0.33050  Biso   1.000  B 
  B597     1.0000 0.50000  0.32050  0.24200  Biso   1.000  B 
  B598     1.0000 0.50000  0.29420  0.14470  Biso   1.000  B 
  N22      1.0000 0.50622  0.20594  0.15900  Biso   1.000  N 
  B599     1.0000 0.50000  0.35530  0.20580  Biso   1.000  B 
  B600     1.0000 0.50000  0.33050  0.27510  Biso   1.000  B 
  B601     1.0000 0.50000  0.34350  0.15650  Biso   1.000  B 
  B602     1.0000 0.50000  0.38280  0.11720  Biso   1.000  B 
  B603     1.0000 0.50000  0.28510  0.11140  Biso   1.000  B 
  B604     1.0000 0.50000  0.38860  0.21490  Biso   1.000  B 
  B605     1.0000 0.50000  0.36740  0.07190  Biso   1.000  B 
  B606     1.0000 0.50000  0.42810  0.13260  Biso   1.000  B 
  H169     1.0000 0.48053  0.20010  0.12981  Biso   1.000  H 
  C64      1.0000 0.55734  0.20133  0.14261  Biso   1.000  C 
  C65      1.0000 0.56800  0.14798  0.12748  Biso   1.000  C 
  C66      1.0000 0.54102  0.12656  0.08096  Biso   1.000  C 
  H170     1.0000 0.50468  0.11232  0.09154  Biso   1.000  H 
  H171     1.0000 0.56400  0.09529  0.06507  Biso   1.000  H 
  H172     1.0000 0.53388  0.15629  0.05162  Biso   1.000  H 
  H173     1.0000 0.58235  0.21402  0.17252  Biso   1.000  H 
  H174     1.0000 0.56492  0.22263  0.10937  Biso   1.000  H 
  H175     1.0000 0.56534  0.12431  0.16172  Biso   1.000  H 
  H176     1.0000 0.60825  0.14600  0.11615  Biso   1.000  H 
  B607     1.0000 0.50000  0.92810  0.36740  Biso   1.000  B 
  B608     1.0000 0.50000  0.88280  0.38280  Biso   1.000  B 
  B609     1.0000 0.50000  0.86740  0.42810  Biso   1.000  B 
  B610     1.0000 0.50000  0.84350  0.34350  Biso   1.000  B 
  B611     1.0000 0.50000  0.85530  0.29420  Biso   1.000  B 
  B612     1.0000 0.50000  0.79420  0.35530  Biso   1.000  B 
  B613     1.0000 0.50000  0.82050  0.25800  Biso   1.000  B 
  B614     1.0000 0.50000  0.88860  0.28510  Biso   1.000  B 
  B615     1.0000 0.50000  0.75800  0.32050  Biso   1.000  B 
  B616     1.0000 0.50000  0.78510  0.38860  Biso   1.000  B 
  B617     1.0000 0.50000  0.76930  0.26930  Biso   1.000  B 
  B618     1.0000 0.50000  0.73070  0.23070  Biso   1.000  B 
  B619     1.0000 0.50000  0.83050  0.22490  Biso   1.000  B 
  B620     1.0000 0.50000  0.74200  0.17950  Biso   1.000  B 
  B621     1.0000 0.50000  0.72490  0.33050  Biso   1.000  B 
  B622     1.0000 0.50000  0.67950  0.24200  Biso   1.000  B 
  B623     1.0000 0.50000  0.70580  0.14470  Biso   1.000  B 
  N23      1.0000 0.49378  0.79406  0.15900  Biso   1.000  N 
  B624     1.0000 0.50000  0.64470  0.20580  Biso   1.000  B 
  B625     1.0000 0.50000  0.66950  0.27510  Biso   1.000  B 
  B626     1.0000 0.50000  0.65650  0.15650  Biso   1.000  B 
  B627     1.0000 0.50000  0.61720  0.11720  Biso   1.000  B 
  B628     1.0000 0.50000  0.71490  0.11140  Biso   1.000  B 
  B629     1.0000 0.50000  0.61140  0.21490  Biso   1.000  B 
  B630     1.0000 0.50000  0.63260  0.07190  Biso   1.000  B 
  B631     1.0000 0.50000  0.57190  0.13260  Biso   1.000  B 
  H177     1.0000 0.51947  0.79990  0.12981  Biso   1.000  H 
  C67      1.0000 0.44266  0.79867  0.14261  Biso   1.000  C 
  C68      1.0000 0.43200  0.85202  0.12748  Biso   1.000  C 
  C69      1.0000 0.45898  0.87344  0.08096  Biso   1.000  C 
  H178     1.0000 0.49532  0.88768  0.09154  Biso   1.000  H 
  H179     1.0000 0.43600  0.90471  0.06507  Biso   1.000  H 
  H180     1.0000 0.46612  0.84371  0.05162  Biso   1.000  H 
  H181     1.0000 0.41765  0.78598  0.17252  Biso   1.000  H 
  H182     1.0000 0.43508  0.77737  0.10937  Biso   1.000  H 
  H183     1.0000 0.43466  0.87569  0.16172  Biso   1.000  H 
  H184     1.0000 0.39175  0.85400  0.11615  Biso   1.000  H 
  B632     1.0000 0.50000  0.92810  0.63260  Biso   1.000  B 
  B633     1.0000 0.50000  0.88280  0.61720  Biso   1.000  B 
  B634     1.0000 0.50000  0.86740  0.57190  Biso   1.000  B 
  B635     1.0000 0.50000  0.84350  0.65650  Biso   1.000  B 
  B636     1.0000 0.50000  0.85530  0.70580  Biso   1.000  B 
  B637     1.0000 0.50000  0.79420  0.64470  Biso   1.000  B 
  B638     1.0000 0.50000  0.82050  0.74200  Biso   1.000  B 
  B639     1.0000 0.50000  0.88860  0.71490  Biso   1.000  B 
  B640     1.0000 0.50000  0.75800  0.67950  Biso   1.000  B 
  B641     1.0000 0.50000  0.78510  0.61140  Biso   1.000  B 
  B642     1.0000 0.50000  0.76930  0.73070  Biso   1.000  B 
  B643     1.0000 0.50000  0.73070  0.76930  Biso   1.000  B 
  B644     1.0000 0.50000  0.83050  0.77510  Biso   1.000  B 
  B645     1.0000 0.50000  0.74200  0.82050  Biso   1.000  B 
  B646     1.0000 0.50000  0.72490  0.66950  Biso   1.000  B 
  B647     1.0000 0.50000  0.67950  0.75800  Biso   1.000  B 
  B648     1.0000 0.50000  0.70580  0.85530  Biso   1.000  B 
  N24      1.0000 0.50622  0.79406  0.84101  Biso   1.000  N 
  B649     1.0000 0.50000  0.64470  0.79420  Biso   1.000  B 
  B650     1.0000 0.50000  0.66950  0.72490  Biso   1.000  B 
  B651     1.0000 0.50000  0.65650  0.84350  Biso   1.000  B 
  B652     1.0000 0.50000  0.61720  0.88280  Biso   1.000  B 
  B653     1.0000 0.50000  0.71490  0.88860  Biso   1.000  B 
  B654     1.0000 0.50000  0.61140  0.78510  Biso   1.000  B 
  B655     1.0000 0.50000  0.63260  0.92810  Biso   1.000  B 
  B656     1.0000 0.50000  0.57190  0.86740  Biso   1.000  B 
  H185     1.0000 0.48053  0.79990  0.87019  Biso   1.000  H 
  C70      1.0000 0.55734  0.79867  0.85740  Biso   1.000  C 
  C71      1.0000 0.56800  0.85202  0.87252  Biso   1.000  C 
  C72      1.0000 0.54102  0.87344  0.91904  Biso   1.000  C 
  H186     1.0000 0.50468  0.88768  0.90846  Biso   1.000  H 
  H187     1.0000 0.56400  0.90471  0.93493  Biso   1.000  H 
  H188     1.0000 0.53388  0.84371  0.94838  Biso   1.000  H 
  H189     1.0000 0.58235  0.78598  0.82748  Biso   1.000  H 
  H190     1.0000 0.56492  0.77737  0.89063  Biso   1.000  H 
  H191     1.0000 0.56534  0.87569  0.83828  Biso   1.000  H 
  H192     1.0000 0.60825  0.85400  0.88385  Biso   1.000  H 
