data_image0
_cell_length_a       20.7004
_cell_length_b       20.7004
_cell_length_c       20.7004
_cell_angle_alpha    90
_cell_angle_beta     90
_cell_angle_gamma    90

_symmetry_space_group_name_H-M    "P 1"
_symmetry_int_tables_number       1

loop_
  _symmetry_equiv_pos_as_xyz
  'x, y, z'

loop_
  _atom_site_label
  _atom_site_occupancy
  _atom_site_fract_x
  _atom_site_fract_y
  _atom_site_fract_z
  _atom_site_thermal_displace_type
  _atom_site_B_iso_or_equiv
  _atom_site_type_symbol
  B1       1.0000 0.11989  0.00000  0.00000  Biso   1.000  B 
  B2       1.0000 0.11989  0.50000  0.50000  Biso   1.000  B 
  B3       1.0000 0.61989  0.00000  0.50000  Biso   1.000  B 
  B4       1.0000 0.61989  0.50000  0.00000  Biso   1.000  B 
  B5       1.0000 0.88011  0.00000  0.00000  Biso   1.000  B 
  B6       1.0000 0.88011  0.50000  0.50000  Biso   1.000  B 
  B7       1.0000 0.38011  0.00000  0.50000  Biso   1.000  B 
  B8       1.0000 0.38011  0.50000  0.00000  Biso   1.000  B 
  B9       1.0000 0.00000  0.11989  0.00000  Biso   1.000  B 
  B10      1.0000 0.00000  0.61989  0.50000  Biso   1.000  B 
  B11      1.0000 0.50000  0.11989  0.50000  Biso   1.000  B 
  B12      1.0000 0.50000  0.61989  0.00000  Biso   1.000  B 
  B13      1.0000 0.00000  0.88011  0.00000  Biso   1.000  B 
  B14      1.0000 0.00000  0.38011  0.50000  Biso   1.000  B 
  B15      1.0000 0.50000  0.88011  0.50000  Biso   1.000  B 
  B16      1.0000 0.50000  0.38011  0.00000  Biso   1.000  B 
  B17      1.0000 0.00000  0.00000  0.11989  Biso   1.000  B 
  B18      1.0000 0.00000  0.50000  0.61989  Biso   1.000  B 
  B19      1.0000 0.50000  0.00000  0.61989  Biso   1.000  B 
  B20      1.0000 0.50000  0.50000  0.11989  Biso   1.000  B 
  B21      1.0000 0.00000  0.00000  0.88011  Biso   1.000  B 
  B22      1.0000 0.00000  0.50000  0.38011  Biso   1.000  B 
  B23      1.0000 0.50000  0.00000  0.38011  Biso   1.000  B 
  B24      1.0000 0.50000  0.50000  0.88011  Biso   1.000  B 
  B25      1.0000 0.05610  0.44390  0.44390  Biso   1.000  B 
  B26      1.0000 0.55610  0.94390  0.44390  Biso   1.000  B 
  B27      1.0000 0.55610  0.44390  0.94390  Biso   1.000  B 
  B28      1.0000 0.44390  0.05610  0.44390  Biso   1.000  B 
  B29      1.0000 0.44390  0.55610  0.94390  Biso   1.000  B 
  B30      1.0000 0.94390  0.94390  0.05610  Biso   1.000  B 
  B31      1.0000 0.94390  0.44390  0.55610  Biso   1.000  B 
  B32      1.0000 0.05610  0.05610  0.05610  Biso   1.000  B 
  B33      1.0000 0.55610  0.55610  0.05610  Biso   1.000  B 
  B34      1.0000 0.94390  0.05610  0.05610  Biso   1.000  B 
  B35      1.0000 0.94390  0.55610  0.55610  Biso   1.000  B 
  B36      1.0000 0.44390  0.05610  0.55610  Biso   1.000  B 
  B37      1.0000 0.44390  0.55610  0.05610  Biso   1.000  B 
  B38      1.0000 0.05610  0.94390  0.05610  Biso   1.000  B 
  B39      1.0000 0.05610  0.44390  0.55610  Biso   1.000  B 
  B40      1.0000 0.55610  0.94390  0.55610  Biso   1.000  B 
  B41      1.0000 0.55610  0.44390  0.05610  Biso   1.000  B 
  B42      1.0000 0.94390  0.94390  0.94390  Biso   1.000  B 
  B43      1.0000 0.94390  0.44390  0.44390  Biso   1.000  B 
  B44      1.0000 0.44390  0.94390  0.44390  Biso   1.000  B 
  B45      1.0000 0.44390  0.44390  0.94390  Biso   1.000  B 
  B46      1.0000 0.05610  0.05610  0.94390  Biso   1.000  B 
  B47      1.0000 0.05610  0.55610  0.44390  Biso   1.000  B 
  B48      1.0000 0.55610  0.05610  0.44390  Biso   1.000  B 
  B49      1.0000 0.15360  0.00000  0.84640  Biso   1.000  B 
  B50      1.0000 0.17046  0.00000  0.90471  Biso   1.000  B 
  B51      1.0000 0.09529  0.00000  0.82954  Biso   1.000  B 
  B52      1.0000 0.20500  0.00000  0.79500  Biso   1.000  B 
  B53      1.0000 0.18437  0.00000  0.73249  Biso   1.000  B 
  N1       1.0000 0.14330  0.05846  0.71320  Biso   1.000  N 
  B54      1.0000 0.22128  0.00000  0.63051  Biso   1.000  B 
  B55      1.0000 0.23249  0.00000  0.68442  Biso   1.000  B 
  B56      1.0000 0.29500  0.00000  0.70500  Biso   1.000  B 
  B57      1.0000 0.31558  0.00000  0.76751  Biso   1.000  B 
  B58      1.0000 0.26751  0.00000  0.81563  Biso   1.000  B 
  B59      1.0000 0.27872  0.00000  0.86954  Biso   1.000  B 
  N2       1.0000 0.37289  0.04521  0.77932  Biso   1.000  N 
  B60      1.0000 0.40470  0.00000  0.67046  Biso   1.000  B 
  B61      1.0000 0.34640  0.00000  0.65360  Biso   1.000  B 
  B62      1.0000 0.32954  0.00000  0.59529  Biso   1.000  B 
  H1       1.0000 0.14492  0.07289  0.66428  Biso   1.000  H 
  C1       1.0000 0.09409  0.08198  0.74284  Biso   1.000  C 
  H2       1.0000 0.09719  0.12977  0.72187  Biso   1.000  H 
  H3       1.0000 0.10464  0.09224  0.79193  Biso   1.000  H 
  C2       1.0000 0.04193  0.03581  0.71632  Biso   1.000  C 
  H4       1.0000 0.99917  0.04381  0.74365  Biso   1.000  H 
  C3       1.0000 0.05057  0.96677  0.70624  Biso   1.000  C 
  H5       1.0000 0.03593  0.05154  0.67351  Biso   1.000  H 
  H6       1.0000 0.08486  0.94764  0.73713  Biso   1.000  H 
  C4       1.0000 0.05756  0.93861  0.64154  Biso   1.000  C 
  H7       1.0000 0.00395  0.95612  0.72722  Biso   1.000  H 
  C5       1.0000 0.36465  0.11052  0.74873  Biso   1.000  C 
  H8       1.0000 0.41360  0.02423  0.76778  Biso   1.000  H 
  H9       1.0000 0.38304  0.11406  0.69922  Biso   1.000  H 
  C6       1.0000 0.29688  0.13888  0.74537  Biso   1.000  C 
  H10      1.0000 0.39104  0.14290  0.77870  Biso   1.000  H 
  H11      1.0000 0.26773  0.11301  0.71127  Biso   1.000  H 
  H12      1.0000 0.29986  0.18626  0.72620  Biso   1.000  H 
  C7       1.0000 0.25977  0.14566  0.81063  Biso   1.000  C 
  C8       1.0000 0.27481  0.20991  0.84281  Biso   1.000  C 
  H13      1.0000 0.25683  0.10859  0.84788  Biso   1.000  H 
  H14      1.0000 0.20838  0.14473  0.79736  Biso   1.000  H 
  C9       1.0000 0.10186  0.96634  0.59641  Biso   1.000  C 
  H15      1.0000 0.01475  0.94613  0.61922  Biso   1.000  H 
  H16      1.0000 0.06923  0.88803  0.64656  Biso   1.000  H 
  C10      1.0000 0.34634  0.23310  0.85186  Biso   1.000  C 
  H17      1.0000 0.25343  0.21021  0.88968  Biso   1.000  H 
  H18      1.0000 0.25282  0.24721  0.81548  Biso   1.000  H 
  H19      1.0000 0.08515  0.95670  0.55014  Biso   1.000  H 
  H20      1.0000 0.14659  0.94175  0.60400  Biso   1.000  H 
  H21      1.0000 0.10493  0.01756  0.60249  Biso   1.000  H 
  H22      1.0000 0.34769  0.28167  0.87606  Biso   1.000  H 
  H23      1.0000 0.37196  0.23916  0.80756  Biso   1.000  H 
  H24      1.0000 0.37349  0.19872  0.88053  Biso   1.000  H 
  B63      1.0000 0.15360  0.50000  0.34640  Biso   1.000  B 
  B64      1.0000 0.17046  0.50000  0.40471  Biso   1.000  B 
  B65      1.0000 0.09529  0.50000  0.32954  Biso   1.000  B 
  B66      1.0000 0.20500  0.50000  0.29500  Biso   1.000  B 
  B67      1.0000 0.18437  0.50000  0.23249  Biso   1.000  B 
  N3       1.0000 0.12009  0.47814  0.21606  Biso   1.000  N 
  B68      1.0000 0.22128  0.50000  0.13051  Biso   1.000  B 
  B69      1.0000 0.23249  0.50000  0.18442  Biso   1.000  B 
  B70      1.0000 0.29500  0.50000  0.20500  Biso   1.000  B 
  B71      1.0000 0.31558  0.50000  0.26751  Biso   1.000  B 
  B72      1.0000 0.26751  0.50000  0.31563  Biso   1.000  B 
  B73      1.0000 0.27872  0.50000  0.36954  Biso   1.000  B 
  N4       1.0000 0.37770  0.53129  0.28324  Biso   1.000  N 
  B74      1.0000 0.40470  0.50000  0.17046  Biso   1.000  B 
  B75      1.0000 0.34640  0.50000  0.15360  Biso   1.000  B 
  B76      1.0000 0.32954  0.50000  0.09529  Biso   1.000  B 
  H25      1.0000 0.12142  0.45103  0.17427  Biso   1.000  H 
  C11      1.0000 0.08151  0.53205  0.20969  Biso   1.000  C 
  H26      1.0000 0.08802  0.55516  0.16283  Biso   1.000  H 
  H27      1.0000 0.08995  0.57053  0.24555  Biso   1.000  H 
  C12      1.0000 0.01324  0.50008  0.21468  Biso   1.000  C 
  H28      1.0000 0.00571  0.47811  0.25934  Biso   1.000  H 
  C13      1.0000 0.97593  0.46530  0.15919  Biso   1.000  C 
  H29      1.0000 0.98821  0.54094  0.21215  Biso   1.000  H 
  H30      1.0000 0.94466  0.43011  0.18002  Biso   1.000  H 
  C14      1.0000 0.01231  0.43155  0.11083  Biso   1.000  C 
  H31      1.0000 0.93714  0.49358  0.13892  Biso   1.000  H 
  C15      1.0000 0.37466  0.59620  0.25908  Biso   1.000  C 
  H32      1.0000 0.41953  0.50567  0.27092  Biso   1.000  H 
  H33      1.0000 0.39283  0.60059  0.20858  Biso   1.000  H 
  C16      1.0000 0.30986  0.63039  0.26565  Biso   1.000  C 
  H34      1.0000 0.40530  0.62210  0.28840  Biso   1.000  H 
  H35      1.0000 0.26994  0.61308  0.23490  Biso   1.000  H 
  H36      1.0000 0.32602  0.67334  0.24637  Biso   1.000  H 
  C17      1.0000 0.28922  0.63897  0.33450  Biso   1.000  C 
  C18      1.0000 0.29961  0.70883  0.35597  Biso   1.000  C 
  H37      1.0000 0.31002  0.60271  0.36502  Biso   1.000  H 
  H38      1.0000 0.23633  0.63153  0.33201  Biso   1.000  H 
  C19      1.0000 0.04940  0.46921  0.06327  Biso   1.000  C 
  H39      1.0000 0.98280  0.40630  0.08206  Biso   1.000  H 
  H40      1.0000 0.04407  0.40116  0.13351  Biso   1.000  H 
  C20      1.0000 0.36859  0.72618  0.36824  Biso   1.000  C 
  H41      1.0000 0.27023  0.72368  0.39426  Biso   1.000  H 
  H42      1.0000 0.28182  0.73424  0.31699  Biso   1.000  H 
  H43      1.0000 0.07554  0.43111  0.03460  Biso   1.000  H 
  H44      1.0000 0.07913  0.50078  0.08727  Biso   1.000  H 
  H45      1.0000 0.01990  0.49531  0.03222  Biso   1.000  H 
  H46      1.0000 0.39329  0.70961  0.32636  Biso   1.000  H 
  H47      1.0000 0.39004  0.70160  0.40840  Biso   1.000  H 
  H48      1.0000 0.37302  0.77958  0.37128  Biso   1.000  H 
  B77      1.0000 0.65360  0.00000  0.34640  Biso   1.000  B 
  B78      1.0000 0.67046  0.00000  0.40471  Biso   1.000  B 
  B79      1.0000 0.59529  0.00000  0.32954  Biso   1.000  B 
  B80      1.0000 0.70500  0.00000  0.29500  Biso   1.000  B 
  B81      1.0000 0.68437  0.00000  0.23249  Biso   1.000  B 
  N5       1.0000 0.61854  0.99564  0.21472  Biso   1.000  N 
  B82      1.0000 0.72128  0.00000  0.13051  Biso   1.000  B 
  B83      1.0000 0.73248  0.00000  0.18442  Biso   1.000  B 
  B84      1.0000 0.79499  0.00000  0.20500  Biso   1.000  B 
  B85      1.0000 0.81558  0.00000  0.26751  Biso   1.000  B 
  B86      1.0000 0.76751  0.00000  0.31563  Biso   1.000  B 
  B87      1.0000 0.77872  0.00000  0.36954  Biso   1.000  B 
  N6       1.0000 0.87336  0.04419  0.27982  Biso   1.000  N 
  B88      1.0000 0.90470  0.00000  0.17046  Biso   1.000  B 
  B89      1.0000 0.84639  0.00000  0.15360  Biso   1.000  B 
  B90      1.0000 0.82953  0.00000  0.09529  Biso   1.000  B 
  H49      1.0000 0.62257  0.98545  0.16779  Biso   1.000  H 
  C21      1.0000 0.58807  0.05371  0.20415  Biso   1.000  C 
  H50      1.0000 0.60984  0.08387  0.16338  Biso   1.000  H 
  H51      1.0000 0.58875  0.07807  0.25116  Biso   1.000  H 
  C22      1.0000 0.52154  0.03328  0.19019  Biso   1.000  C 
  H52      1.0000 0.49894  0.03952  0.23726  Biso   1.000  H 
  C23      1.0000 0.50778  0.96723  0.17997  Biso   1.000  C 
  H53      1.0000 0.49642  0.06020  0.15846  Biso   1.000  H 
  H54      1.0000 0.52807  0.95169  0.22661  Biso   1.000  H 
  C24      1.0000 0.53286  0.93497  0.11805  Biso   1.000  C 
  H55      1.0000 0.45595  0.96286  0.18575  Biso   1.000  H 
  C25      1.0000 0.86233  0.10770  0.24330  Biso   1.000  C 
  H56      1.0000 0.91840  0.02446  0.26991  Biso   1.000  H 
  H57      1.0000 0.86716  0.10515  0.19110  Biso   1.000  H 
  C26      1.0000 0.79826  0.13928  0.25988  Biso   1.000  C 
  H58      1.0000 0.89571  0.14426  0.25558  Biso   1.000  H 
  H59      1.0000 0.76242  0.10903  0.24008  Biso   1.000  H 
  H60      1.0000 0.79879  0.17934  0.23080  Biso   1.000  H 
  C27      1.0000 0.79068  0.15017  0.33170  Biso   1.000  C 
  C28      1.0000 0.79135  0.22207  0.35300  Biso   1.000  C 
  H61      1.0000 0.83222  0.13165  0.35416  Biso   1.000  H 
  H62      1.0000 0.74858  0.12159  0.34788  Biso   1.000  H 
  C29      1.0000 0.58243  0.95223  0.06662  Biso   1.000  C 
  H63      1.0000 0.49160  0.95014  0.09482  Biso   1.000  H 
  H64      1.0000 0.52964  0.88613  0.12380  Biso   1.000  H 
  C30      1.0000 0.85906  0.24695  0.35987  Biso   1.000  C 
  H65      1.0000 0.76460  0.22878  0.39593  Biso   1.000  H 
  H66      1.0000 0.76590  0.24986  0.31589  Biso   1.000  H 
  H67      1.0000 0.58847  0.00307  0.07868  Biso   1.000  H 
  H68      1.0000 0.56474  0.94968  0.01902  Biso   1.000  H 
  H69      1.0000 0.63133  0.92918  0.06897  Biso   1.000  H 
  H70      1.0000 0.88756  0.22939  0.31964  Biso   1.000  H 
  H71      1.0000 0.88393  0.23528  0.40497  Biso   1.000  H 
  H72      1.0000 0.85627  0.29866  0.35737  Biso   1.000  H 
  B91      1.0000 0.65360  0.50000  0.84640  Biso   1.000  B 
  B92      1.0000 0.67046  0.50000  0.90471  Biso   1.000  B 
  B93      1.0000 0.59529  0.50000  0.82954  Biso   1.000  B 
  B94      1.0000 0.70500  0.50000  0.79500  Biso   1.000  B 
  B95      1.0000 0.68437  0.50000  0.73249  Biso   1.000  B 
  N7       1.0000 0.61961  0.49683  0.71414  Biso   1.000  N 
  B96      1.0000 0.72128  0.50000  0.63051  Biso   1.000  B 
  B97      1.0000 0.73248  0.50000  0.68442  Biso   1.000  B 
  B98      1.0000 0.79499  0.50000  0.70500  Biso   1.000  B 
  B99      1.0000 0.81558  0.50000  0.76751  Biso   1.000  B 
  B100     1.0000 0.76751  0.50000  0.81563  Biso   1.000  B 
  B101     1.0000 0.77872  0.50000  0.86954  Biso   1.000  B 
  N8       1.0000 0.87195  0.54552  0.78002  Biso   1.000  N 
  B102     1.0000 0.90470  0.50000  0.67046  Biso   1.000  B 
  B103     1.0000 0.84639  0.50000  0.65360  Biso   1.000  B 
  B104     1.0000 0.82953  0.50000  0.59529  Biso   1.000  B 
  H73      1.0000 0.62656  0.48974  0.66624  Biso   1.000  H 
  C31      1.0000 0.58869  0.55396  0.70874  Biso   1.000  C 
  H74      1.0000 0.60381  0.58433  0.66649  Biso   1.000  H 
  H75      1.0000 0.59065  0.58489  0.75022  Biso   1.000  H 
  C32      1.0000 0.52392  0.52063  0.70090  Biso   1.000  C 
  H76      1.0000 0.50818  0.50627  0.75008  Biso   1.000  H 
  C33      1.0000 0.51772  0.46608  0.64972  Biso   1.000  C 
  H77      1.0000 0.49262  0.54988  0.67730  Biso   1.000  H 
  H78      1.0000 0.54390  0.42423  0.66514  Biso   1.000  H 
  C34      1.0000 0.53998  0.48317  0.58530  Biso   1.000  C 
  H79      1.0000 0.46941  0.45478  0.65141  Biso   1.000  H 
  C35      1.0000 0.86892  0.60680  0.74065  Biso   1.000  C 
  H80      1.0000 0.91466  0.52298  0.77181  Biso   1.000  H 
  H81      1.0000 0.89439  0.60171  0.69511  Biso   1.000  H 
  C36      1.0000 0.80611  0.64070  0.71525  Biso   1.000  C 
  H82      1.0000 0.89719  0.64021  0.76601  Biso   1.000  H 
  H83      1.0000 0.81403  0.64784  0.66447  Biso   1.000  H 
  H84      1.0000 0.81232  0.68278  0.73536  Biso   1.000  H 
  C37      1.0000 0.73294  0.64906  0.72401  Biso   1.000  C 
  C38      1.0000 0.70436  0.67971  0.78229  Biso   1.000  C 
  H85      1.0000 0.70896  0.60594  0.72228  Biso   1.000  H 
  H86      1.0000 0.71535  0.67830  0.68171  Biso   1.000  H 
  C39      1.0000 0.58762  0.44006  0.55571  Biso   1.000  C 
  H87      1.0000 0.56516  0.52961  0.58722  Biso   1.000  H 
  H88      1.0000 0.50252  0.48770  0.54933  Biso   1.000  H 
  C40      1.0000 0.68461  0.63893  0.83804  Biso   1.000  C 
  H89      1.0000 0.65998  0.69851  0.76507  Biso   1.000  H 
  H90      1.0000 0.73589  0.71623  0.80193  Biso   1.000  H 
  H91      1.0000 0.61583  0.46097  0.52003  Biso   1.000  H 
  H92      1.0000 0.55826  0.40576  0.53235  Biso   1.000  H 
  H93      1.0000 0.61665  0.41823  0.59280  Biso   1.000  H 
  H94      1.0000 0.68437  0.66815  0.88149  Biso   1.000  H 
  H95      1.0000 0.72216  0.60315  0.84484  Biso   1.000  H 
  H96      1.0000 0.63667  0.61799  0.83284  Biso   1.000  H 
  B105     1.0000 0.84640  0.00000  0.84640  Biso   1.000  B 
  B106     1.0000 0.82954  0.00000  0.90471  Biso   1.000  B 
  B107     1.0000 0.90471  0.00000  0.82954  Biso   1.000  B 
  B108     1.0000 0.79500  0.00000  0.79500  Biso   1.000  B 
  B109     1.0000 0.81563  0.00000  0.73249  Biso   1.000  B 
  N9       1.0000 0.86008  0.05847  0.72250  Biso   1.000  N 
  B110     1.0000 0.77872  0.00000  0.63051  Biso   1.000  B 
  B111     1.0000 0.76752  0.00000  0.68442  Biso   1.000  B 
  B112     1.0000 0.70501  0.00000  0.70500  Biso   1.000  B 
  B113     1.0000 0.68442  0.00000  0.76751  Biso   1.000  B 
  B114     1.0000 0.73249  0.00000  0.81563  Biso   1.000  B 
  B115     1.0000 0.72128  0.00000  0.86954  Biso   1.000  B 
  N10      1.0000 0.63371  0.05021  0.78140  Biso   1.000  N 
  B116     1.0000 0.59530  0.00000  0.67046  Biso   1.000  B 
  B117     1.0000 0.65361  0.00000  0.65360  Biso   1.000  B 
  B118     1.0000 0.67047  0.00000  0.59529  Biso   1.000  B 
  H97      1.0000 0.90736  0.05058  0.73319  Biso   1.000  H 
  C41      1.0000 0.82814  0.11442  0.75951  Biso   1.000  C 
  H98      1.0000 0.81820  0.10412  0.80957  Biso   1.000  H 
  H99      1.0000 0.78128  0.12590  0.73507  Biso   1.000  H 
  C42      1.0000 0.86949  0.17124  0.77578  Biso   1.000  C 
  H100     1.0000 0.87616  0.18229  0.82842  Biso   1.000  H 
  C43      1.0000 0.85561  0.23139  0.73886  Biso   1.000  C 
  H101     1.0000 0.90893  0.14588  0.76207  Biso   1.000  H 
  H102     1.0000 0.81774  0.25250  0.76783  Biso   1.000  H 
  C44      1.0000 0.82939  0.22459  0.67060  Biso   1.000  C 
  H103     1.0000 0.89434  0.26663  0.73929  Biso   1.000  H 
  C45      1.0000 0.56752  0.04475  0.78766  Biso   1.000  C 
  H104     1.0000 0.64953  0.09234  0.75675  Biso   1.000  H 
  H105     1.0000 0.55452  0.07202  0.83019  Biso   1.000  H 
  C46      1.0000 0.53213  0.98493  0.77582  Biso   1.000  C 
  H106     1.0000 0.55914  0.07076  0.74629  Biso   1.000  H 
  H107     1.0000 0.50047  0.99212  0.73520  Biso   1.000  H 
  H108     1.0000 0.56445  0.94590  0.76358  Biso   1.000  H 
  C47      1.0000 0.48863  0.97308  0.83320  Biso   1.000  C 
  C48      1.0000 0.52256  0.96108  0.89559  Biso   1.000  C 
  H109     1.0000 0.45064  0.93763  0.82320  Biso   1.000  H 
  H110     1.0000 0.46664  0.01905  0.84497  Biso   1.000  H 
  C49      1.0000 0.85311  0.16751  0.63668  Biso   1.000  C 
  H111     1.0000 0.84747  0.26606  0.64096  Biso   1.000  H 
  H112     1.0000 0.77602  0.22449  0.67339  Biso   1.000  H 
  C50      1.0000 0.58219  0.92636  0.88526  Biso   1.000  C 
  H113     1.0000 0.48874  0.93337  0.92205  Biso   1.000  H 
  H114     1.0000 0.53146  0.00380  0.92132  Biso   1.000  H 
  H115     1.0000 0.89883  0.15151  0.65428  Biso   1.000  H 
  H116     1.0000 0.85694  0.17717  0.58839  Biso   1.000  H 
  H117     1.0000 0.81844  0.12876  0.64382  Biso   1.000  H 
  H118     1.0000 0.56260  0.88552  0.86315  Biso   1.000  H 
  H119     1.0000 0.60554  0.91256  0.93124  Biso   1.000  H 
  H120     1.0000 0.61758  0.94836  0.85389  Biso   1.000  H 
  B119     1.0000 0.84640  0.50000  0.34640  Biso   1.000  B 
  B120     1.0000 0.82954  0.50000  0.40471  Biso   1.000  B 
  B121     1.0000 0.90471  0.50000  0.32954  Biso   1.000  B 
  B122     1.0000 0.79500  0.50000  0.29500  Biso   1.000  B 
  B123     1.0000 0.81563  0.50000  0.23249  Biso   1.000  B 
  N11      1.0000 0.86743  0.54459  0.21191  Biso   1.000  N 
  B124     1.0000 0.77872  0.50000  0.13051  Biso   1.000  B 
  B125     1.0000 0.76752  0.50000  0.18442  Biso   1.000  B 
  B126     1.0000 0.70501  0.50000  0.20500  Biso   1.000  B 
  B127     1.0000 0.68442  0.50000  0.26751  Biso   1.000  B 
  B128     1.0000 0.73249  0.50000  0.31563  Biso   1.000  B 
  B129     1.0000 0.72128  0.50000  0.36954  Biso   1.000  B 
  N12      1.0000 0.63012  0.54580  0.28106  Biso   1.000  N 
  B130     1.0000 0.59530  0.50000  0.17046  Biso   1.000  B 
  B131     1.0000 0.65361  0.50000  0.15360  Biso   1.000  B 
  B132     1.0000 0.67047  0.50000  0.09529  Biso   1.000  B 
  H121     1.0000 0.90467  0.54028  0.24000  Biso   1.000  H 
  C51      1.0000 0.83910  0.61042  0.20586  Biso   1.000  C 
  H122     1.0000 0.78612  0.61224  0.20570  Biso   1.000  H 
  H123     1.0000 0.85218  0.62943  0.15826  Biso   1.000  H 
  C52      1.0000 0.86173  0.64638  0.26706  Biso   1.000  C 
  H124     1.0000 0.83609  0.62089  0.30168  Biso   1.000  H 
  C53      1.0000 0.85476  0.71442  0.29212  Biso   1.000  C 
  H125     1.0000 0.90968  0.63291  0.27690  Biso   1.000  H 
  H126     1.0000 0.81249  0.72328  0.31940  Biso   1.000  H 
  C54      1.0000 0.85165  0.76466  0.24213  Biso   1.000  C 
  H127     1.0000 0.89190  0.72411  0.32774  Biso   1.000  H 
  C55      1.0000 0.57097  0.51958  0.29847  Biso   1.000  C 
  H128     1.0000 0.62332  0.58252  0.24690  Biso   1.000  H 
  H129     1.0000 0.55702  0.54690  0.33958  Biso   1.000  H 
  C56      1.0000 0.56958  0.44901  0.31481  Biso   1.000  C 
  H130     1.0000 0.53535  0.52967  0.25946  Biso   1.000  H 
  H131     1.0000 0.51522  0.45141  0.31447  Biso   1.000  H 
  H132     1.0000 0.58713  0.41828  0.27538  Biso   1.000  H 
  C57      1.0000 0.58017  0.42162  0.38170  Biso   1.000  C 
  C58      1.0000 0.64628  0.39589  0.41020  Biso   1.000  C 
  H133     1.0000 0.54778  0.38283  0.37767  Biso   1.000  H 
  H134     1.0000 0.55478  0.45333  0.41486  Biso   1.000  H 
  C59      1.0000 0.86578  0.75270  0.17228  Biso   1.000  C 
  H135     1.0000 0.86625  0.81251  0.26208  Biso   1.000  H 
  H136     1.0000 0.80343  0.76325  0.23026  Biso   1.000  H 
  C60      1.0000 0.70757  0.37680  0.36784  Biso   1.000  C 
  H137     1.0000 0.62907  0.35644  0.43587  Biso   1.000  H 
  H138     1.0000 0.66919  0.42706  0.44508  Biso   1.000  H 
  H139     1.0000 0.82861  0.73345  0.13907  Biso   1.000  H 
  H140     1.0000 0.89894  0.71358  0.17293  Biso   1.000  H 
  H141     1.0000 0.88634  0.79770  0.15114  Biso   1.000  H 
  H142     1.0000 0.71975  0.32611  0.37358  Biso   1.000  H 
  H143     1.0000 0.75243  0.40233  0.38454  Biso   1.000  H 
  H144     1.0000 0.70043  0.38662  0.31774  Biso   1.000  H 
  B133     1.0000 0.34640  0.00000  0.34640  Biso   1.000  B 
  B134     1.0000 0.32954  0.00000  0.40471  Biso   1.000  B 
  B135     1.0000 0.40471  0.00000  0.32954  Biso   1.000  B 
  B136     1.0000 0.29500  0.00000  0.29500  Biso   1.000  B 
  B137     1.0000 0.31563  0.00000  0.23249  Biso   1.000  B 
  N13      1.0000 0.38045  0.03076  0.21200  Biso   1.000  N 
  B138     1.0000 0.27872  0.00000  0.13051  Biso   1.000  B 
  B139     1.0000 0.26751  0.00000  0.18442  Biso   1.000  B 
  B140     1.0000 0.20500  0.00000  0.20500  Biso   1.000  B 
  B141     1.0000 0.18442  0.00000  0.26751  Biso   1.000  B 
  B142     1.0000 0.23249  0.00000  0.31563  Biso   1.000  B 
  B143     1.0000 0.22128  0.00000  0.36954  Biso   1.000  B 
  N14      1.0000 0.12809  0.04621  0.28349  Biso   1.000  N 
  B144     1.0000 0.09530  0.00000  0.17046  Biso   1.000  B 
  B145     1.0000 0.15360  0.00000  0.15360  Biso   1.000  B 
  B146     1.0000 0.17046  0.00000  0.09529  Biso   1.000  B 
  H145     1.0000 0.40600  0.05126  0.24866  Biso   1.000  H 
  C61      1.0000 0.37104  0.09657  0.18612  Biso   1.000  C 
  H146     1.0000 0.34379  0.09478  0.14318  Biso   1.000  H 
  H147     1.0000 0.41506  0.12015  0.17468  Biso   1.000  H 
  C62      1.0000 0.32644  0.14005  0.22882  Biso   1.000  C 
  H148     1.0000 0.28163  0.15897  0.20163  Biso   1.000  H 
  C63      1.0000 0.36414  0.19007  0.25850  Biso   1.000  C 
  H149     1.0000 0.31011  0.11432  0.27050  Biso   1.000  H 
  H150     1.0000 0.35125  0.21480  0.29938  Biso   1.000  H 
  C64      1.0000 0.36132  0.24946  0.21323  Biso   1.000  C 
  H151     1.0000 0.40156  0.16198  0.28083  Biso   1.000  H 
  C65      1.0000 0.06730  0.02036  0.30423  Biso   1.000  C 
  H152     1.0000 0.12310  0.08511  0.25231  Biso   1.000  H 
  H153     1.0000 0.05676  0.04316  0.34859  Biso   1.000  H 
  C66      1.0000 0.07673  0.95297  0.31518  Biso   1.000  C 
  H154     1.0000 0.02758  0.02980  0.27071  Biso   1.000  H 
  H155     1.0000 0.07541  0.93062  0.26654  Biso   1.000  H 
  H156     1.0000 0.12476  0.94530  0.33512  Biso   1.000  H 
  C67      1.0000 0.03765  0.92293  0.36820  Biso   1.000  C 
  C68      1.0000 0.06062  0.92303  0.43738  Biso   1.000  C 
  H157     1.0000 0.05283  0.87940  0.35687  Biso   1.000  H 
  H158     1.0000 0.98472  0.92324  0.36298  Biso   1.000  H 
  C69      1.0000 0.36511  0.24223  0.14216  Biso   1.000  C 
  H159     1.0000 0.38680  0.29335  0.23469  Biso   1.000  H 
  H160     1.0000 0.31229  0.25910  0.21562  Biso   1.000  H 
  C70      1.0000 0.13102  0.91382  0.45126  Biso   1.000  C 
  H161     1.0000 0.03705  0.88044  0.45643  Biso   1.000  H 
  H162     1.0000 0.04313  0.96457  0.46331  Biso   1.000  H 
  H163     1.0000 0.39468  0.20636  0.12644  Biso   1.000  H 
  H164     1.0000 0.38296  0.29021  0.12406  Biso   1.000  H 
  H165     1.0000 0.31872  0.22963  0.12265  Biso   1.000  H 
  H166     1.0000 0.13113  0.87677  0.48721  Biso   1.000  H 
  H167     1.0000 0.14818  0.95444  0.47563  Biso   1.000  H 
  H168     1.0000 0.16075  0.90346  0.41459  Biso   1.000  H 
  B147     1.0000 0.34640  0.50000  0.84640  Biso   1.000  B 
  B148     1.0000 0.32954  0.50000  0.90471  Biso   1.000  B 
  B149     1.0000 0.40471  0.50000  0.82954  Biso   1.000  B 
  B150     1.0000 0.29500  0.50000  0.79500  Biso   1.000  B 
  B151     1.0000 0.31563  0.50000  0.73249  Biso   1.000  B 
  N15      1.0000 0.38190  0.51607  0.71423  Biso   1.000  N 
  B152     1.0000 0.27872  0.50000  0.63051  Biso   1.000  B 
  B153     1.0000 0.26751  0.50000  0.68442  Biso   1.000  B 
  B154     1.0000 0.20500  0.50000  0.70500  Biso   1.000  B 
  B155     1.0000 0.18442  0.50000  0.76751  Biso   1.000  B 
  B156     1.0000 0.23249  0.50000  0.81563  Biso   1.000  B 
  B157     1.0000 0.22128  0.50000  0.86954  Biso   1.000  B 
  N16      1.0000 0.13331  0.54871  0.78178  Biso   1.000  N 
  B158     1.0000 0.09530  0.50000  0.67046  Biso   1.000  B 
  B159     1.0000 0.15360  0.50000  0.65360  Biso   1.000  B 
  B160     1.0000 0.17046  0.50000  0.59529  Biso   1.000  B 
  H169     1.0000 0.41374  0.48177  0.73058  Biso   1.000  H 
  C71      1.0000 0.38343  0.58678  0.70991  Biso   1.000  C 
  H170     1.0000 0.34997  0.59310  0.67236  Biso   1.000  H 
  H171     1.0000 0.42264  0.60413  0.68852  Biso   1.000  H 
  C72      1.0000 0.36510  0.62735  0.77229  Biso   1.000  C 
  H172     1.0000 0.31889  0.61013  0.78880  Biso   1.000  H 
  C73      1.0000 0.34727  0.69658  0.75728  Biso   1.000  C 
  H173     1.0000 0.39510  0.62076  0.81465  Biso   1.000  H 
  H174     1.0000 0.33018  0.71686  0.80340  Biso   1.000  H 
  C74      1.0000 0.29739  0.69439  0.70090  Biso   1.000  C 
  H175     1.0000 0.38849  0.72608  0.74686  Biso   1.000  H 
  C75      1.0000 0.06716  0.54093  0.78891  Biso   1.000  C 
  H176     1.0000 0.14368  0.59139  0.75550  Biso   1.000  H 
  H177     1.0000 0.05108  0.56962  0.83065  Biso   1.000  H 
  C76      1.0000 0.03269  0.48025  0.78394  Biso   1.000  C 
  H178     1.0000 0.05217  0.56284  0.74767  Biso   1.000  H 
  H179     1.0000 0.99793  0.48270  0.74327  Biso   1.000  H 
  H180     1.0000 0.06940  0.44349  0.77120  Biso   1.000  H 
  C77      1.0000 0.98968  0.46762  0.84057  Biso   1.000  C 
  C78      1.0000 0.01807  0.42657  0.88938  Biso   1.000  C 
  H181     1.0000 0.94596  0.44149  0.82196  Biso   1.000  H 
  H182     1.0000 0.97205  0.51285  0.86310  Biso   1.000  H 
  C79      1.0000 0.33837  0.71154  0.64797  Biso   1.000  C 
  H183     1.0000 0.26072  0.72834  0.70522  Biso   1.000  H 
  H184     1.0000 0.27237  0.64605  0.69481  Biso   1.000  H 
  C80      1.0000 0.08194  0.40017  0.88990  Biso   1.000  C 
  H185     1.0000 0.98943  0.38212  0.88344  Biso   1.000  H 
  H186     1.0000 0.00840  0.45276  0.93392  Biso   1.000  H 
  H187     1.0000 0.38541  0.68697  0.64725  Biso   1.000  H 
  H188     1.0000 0.35092  0.76236  0.64659  Biso   1.000  H 
  H189     1.0000 0.31300  0.70061  0.60859  Biso   1.000  H 
  H190     1.0000 0.08544  0.37574  0.84637  Biso   1.000  H 
  H191     1.0000 0.08564  0.36556  0.92939  Biso   1.000  H 
  H192     1.0000 0.12299  0.42799  0.89447  Biso   1.000  H 
  B161     1.0000 0.84640  0.15360  0.00000  Biso   1.000  B 
  B162     1.0000 0.90471  0.17046  0.00000  Biso   1.000  B 
  B163     1.0000 0.82954  0.09529  0.00000  Biso   1.000  B 
  B164     1.0000 0.79500  0.20500  0.00000  Biso   1.000  B 
  B165     1.0000 0.73249  0.18437  0.00000  Biso   1.000  B 
  N17      1.0000 0.71399  0.14449  0.05916  Biso   1.000  N 
  B166     1.0000 0.63051  0.22128  0.00000  Biso   1.000  B 
  B167     1.0000 0.68442  0.23249  0.00000  Biso   1.000  B 
  B168     1.0000 0.70500  0.29500  0.00000  Biso   1.000  B 
  B169     1.0000 0.76751  0.31558  0.00000  Biso   1.000  B 
  B170     1.0000 0.81563  0.26751  0.00000  Biso   1.000  B 
  B171     1.0000 0.86954  0.27872  0.00000  Biso   1.000  B 
  N18      1.0000 0.78630  0.38029  0.02330  Biso   1.000  N 
  B172     1.0000 0.67046  0.40470  0.00000  Biso   1.000  B 
  B173     1.0000 0.65360  0.34640  0.00000  Biso   1.000  B 
  B174     1.0000 0.59529  0.32954  0.00000  Biso   1.000  B 
  H193     1.0000 0.72359  0.17895  0.09407  Biso   1.000  H 
  C81      1.0000 0.74558  0.09495  0.08423  Biso   1.000  C 
  H194     1.0000 0.71916  0.09368  0.13014  Biso   1.000  H 
  H195     1.0000 0.79661  0.10561  0.09850  Biso   1.000  H 
  C82      1.0000 0.71844  0.04248  0.03749  Biso   1.000  C 
  H196     1.0000 0.74513  0.00140  0.04380  Biso   1.000  H 
  C83      1.0000 0.71247  0.04063  0.97005  Biso   1.000  C 
  H197     1.0000 0.67125  0.03410  0.05585  Biso   1.000  H 
  H198     1.0000 0.74403  0.07161  0.94205  Biso   1.000  H 
  C84      1.0000 0.64416  0.04096  0.94637  Biso   1.000  C 
  H199     1.0000 0.72227  0.98697  0.95755  Biso   1.000  H 
  C85      1.0000 0.77437  0.38603  0.09195  Biso   1.000  C 
  H200     1.0000 0.77077  0.41884  0.99523  Biso   1.000  H 
  H201     1.0000 0.73061  0.41443  0.09697  Biso   1.000  H 
  C86      1.0000 0.75897  0.32771  0.12798  Biso   1.000  C 
  H202     1.0000 0.81339  0.40821  0.11515  Biso   1.000  H 
  H203     1.0000 0.71816  0.30150  0.11002  Biso   1.000  H 
  H204     1.0000 0.74432  0.34825  0.17297  Biso   1.000  H 
  C87      1.0000 0.81799  0.28511  0.14283  Biso   1.000  C 
  C88      1.0000 0.84460  0.29111  0.20772  Biso   1.000  C 
  H205     1.0000 0.85436  0.28951  0.11129  Biso   1.000  H 
  H206     1.0000 0.80489  0.23508  0.13700  Biso   1.000  H 
  C89      1.0000 0.60572  0.09242  0.96276  Biso   1.000  C 
  H207     1.0000 0.62343  0.99963  0.96516  Biso   1.000  H 
  H208     1.0000 0.64123  0.03781  0.89514  Biso   1.000  H 
  C90      1.0000 0.84677  0.35523  0.24329  Biso   1.000  C 
  H209     1.0000 0.88674  0.26009  0.21350  Biso   1.000  H 
  H210     1.0000 0.80877  0.27179  0.23717  Biso   1.000  H 
  H211     1.0000 0.58467  0.08381  0.00686  Biso   1.000  H 
  H212     1.0000 0.57424  0.10743  0.92319  Biso   1.000  H 
  H213     1.0000 0.63493  0.13050  0.97034  Biso   1.000  H 
  H214     1.0000 0.80181  0.36839  0.26819  Biso   1.000  H 
  H215     1.0000 0.85817  0.38997  0.20830  Biso   1.000  H 
  H216     1.0000 0.88812  0.35543  0.27849  Biso   1.000  H 
  B175     1.0000 0.84640  0.65360  0.50000  Biso   1.000  B 
  B176     1.0000 0.90471  0.67046  0.50000  Biso   1.000  B 
  B177     1.0000 0.82954  0.59529  0.50000  Biso   1.000  B 
  B178     1.0000 0.79500  0.70500  0.50000  Biso   1.000  B 
  B179     1.0000 0.73249  0.68437  0.50000  Biso   1.000  B 
  N19      1.0000 0.70906  0.64334  0.55678  Biso   1.000  N 
  B180     1.0000 0.63051  0.72128  0.50000  Biso   1.000  B 
  B181     1.0000 0.68442  0.73248  0.50000  Biso   1.000  B 
  B182     1.0000 0.70500  0.79499  0.50000  Biso   1.000  B 
  B183     1.0000 0.76751  0.81558  0.50000  Biso   1.000  B 
  B184     1.0000 0.81563  0.76751  0.50000  Biso   1.000  B 
  B185     1.0000 0.86954  0.77872  0.50000  Biso   1.000  B 
  N20      1.0000 0.78319  0.87149  0.54491  Biso   1.000  N 
  B186     1.0000 0.67046  0.90470  0.50000  Biso   1.000  B 
  B187     1.0000 0.65360  0.84639  0.50000  Biso   1.000  B 
  B188     1.0000 0.59529  0.82953  0.50000  Biso   1.000  B 
  H217     1.0000 0.65822  0.63994  0.56102  Biso   1.000  H 
  C91      1.0000 0.73652  0.59115  0.57530  Biso   1.000  C 
  H218     1.0000 0.71327  0.58767  0.62004  Biso   1.000  H 
  H219     1.0000 0.78594  0.59883  0.58840  Biso   1.000  H 
  C92      1.0000 0.71734  0.53682  0.53188  Biso   1.000  C 
  H220     1.0000 0.74712  0.49913  0.54227  Biso   1.000  H 
  C93      1.0000 0.71440  0.55090  0.46178  Biso   1.000  C 
  H221     1.0000 0.66970  0.52827  0.54958  Biso   1.000  H 
  H222     1.0000 0.74732  0.58151  0.43540  Biso   1.000  H 
  C94      1.0000 0.64596  0.55554  0.43194  Biso   1.000  C 
  H223     1.0000 0.73370  0.50043  0.45466  Biso   1.000  H 
  C95      1.0000 0.75126  0.85970  0.61002  Biso   1.000  C 
  H224     1.0000 0.77205  0.91571  0.52387  Biso   1.000  H 
  H225     1.0000 0.69832  0.86712  0.60695  Biso   1.000  H 
  C96      1.0000 0.76335  0.79406  0.64311  Biso   1.000  C 
  H226     1.0000 0.76726  0.89392  0.64505  Biso   1.000  H 
  H227     1.0000 0.75471  0.75506  0.60831  Biso   1.000  H 
  H228     1.0000 0.72617  0.78852  0.68024  Biso   1.000  H 
  C97      1.0000 0.83379  0.78210  0.66703  Biso   1.000  C 
  C98      1.0000 0.85186  0.78472  0.74015  Biso   1.000  C 
  H229     1.0000 0.85901  0.82220  0.64794  Biso   1.000  H 
  H230     1.0000 0.85399  0.73935  0.64318  Biso   1.000  H 
  C99      1.0000 0.58704  0.57100  0.46546  Biso   1.000  C 
  H231     1.0000 0.63768  0.50945  0.42405  Biso   1.000  H 
  H232     1.0000 0.63826  0.57672  0.38633  Biso   1.000  H 
  C100     1.0000 0.86267  0.84929  0.77051  Biso   1.000  C 
  H233     1.0000 0.89283  0.75425  0.74672  Biso   1.000  H 
  H234     1.0000 0.81507  0.76825  0.77194  Biso   1.000  H 
  H235     1.0000 0.60040  0.58829  0.51100  Biso   1.000  H 
  H236     1.0000 0.55484  0.53111  0.47165  Biso   1.000  H 
  H237     1.0000 0.55965  0.60732  0.44416  Biso   1.000  H 
  H238     1.0000 0.82145  0.87983  0.75883  Biso   1.000  H 
  H239     1.0000 0.90474  0.87369  0.75317  Biso   1.000  H 
  H240     1.0000 0.86455  0.84594  0.82388  Biso   1.000  H 
  B189     1.0000 0.34640  0.15360  0.50000  Biso   1.000  B 
  B190     1.0000 0.40471  0.17046  0.50000  Biso   1.000  B 
  B191     1.0000 0.32954  0.09529  0.50000  Biso   1.000  B 
  B192     1.0000 0.29500  0.20500  0.50000  Biso   1.000  B 
  B193     1.0000 0.23249  0.18437  0.50000  Biso   1.000  B 
  N21      1.0000 0.21321  0.14730  0.56193  Biso   1.000  N 
  B194     1.0000 0.13051  0.22128  0.50000  Biso   1.000  B 
  B195     1.0000 0.18442  0.23249  0.50000  Biso   1.000  B 
  B196     1.0000 0.20500  0.29500  0.50000  Biso   1.000  B 
  B197     1.0000 0.26751  0.31558  0.50000  Biso   1.000  B 
  B198     1.0000 0.31563  0.26751  0.50000  Biso   1.000  B 
  B199     1.0000 0.36954  0.27872  0.50000  Biso   1.000  B 
  N22      1.0000 0.28592  0.37901  0.52635  Biso   1.000  N 
  B200     1.0000 0.17046  0.40470  0.50000  Biso   1.000  B 
  B201     1.0000 0.15360  0.34640  0.50000  Biso   1.000  B 
  B202     1.0000 0.09529  0.32954  0.50000  Biso   1.000  B 
  H241     1.0000 0.20972  0.17988  0.60239  Biso   1.000  H 
  C101     1.0000 0.24498  0.09550  0.57868  Biso   1.000  C 
  H242     1.0000 0.22522  0.09227  0.62414  Biso   1.000  H 
  H243     1.0000 0.29509  0.10408  0.59484  Biso   1.000  H 
  C102     1.0000 0.21952  0.04549  0.52861  Biso   1.000  C 
  H244     1.0000 0.24735  0.00266  0.53983  Biso   1.000  H 
  C103     1.0000 0.21353  0.05967  0.45880  Biso   1.000  C 
  H245     1.0000 0.17126  0.03942  0.54121  Biso   1.000  H 
  H246     1.0000 0.25143  0.08219  0.43247  Biso   1.000  H 
  C104     1.0000 0.15210  0.07718  0.42453  Biso   1.000  C 
  H247     1.0000 0.22096  0.00930  0.45518  Biso   1.000  H 
  C105     1.0000 0.26765  0.38735  0.59220  Biso   1.000  C 
  H248     1.0000 0.27204  0.41643  0.49563  Biso   1.000  H 
  H249     1.0000 0.22719  0.41524  0.59735  Biso   1.000  H 
  C106     1.0000 0.25099  0.32993  0.63429  Biso   1.000  C 
  H250     1.0000 0.30926  0.40917  0.61605  Biso   1.000  H 
  H251     1.0000 0.20829  0.30141  0.61948  Biso   1.000  H 
  H252     1.0000 0.23622  0.35920  0.67476  Biso   1.000  H 
  C107     1.0000 0.30441  0.28394  0.64416  Biso   1.000  C 
  C108     1.0000 0.33175  0.29344  0.70982  Biso   1.000  C 
  H253     1.0000 0.34523  0.28674  0.61081  Biso   1.000  H 
  H254     1.0000 0.28419  0.23458  0.64161  Biso   1.000  H 
  C109     1.0000 0.09863  0.09800  0.46244  Biso   1.000  C 
  H255     1.0000 0.13691  0.03006  0.40790  Biso   1.000  H 
  H256     1.0000 0.16243  0.10308  0.37867  Biso   1.000  H 
  C110     1.0000 0.35922  0.35748  0.72060  Biso   1.000  C 
  H257     1.0000 0.36916  0.25635  0.71393  Biso   1.000  H 
  H258     1.0000 0.29388  0.28797  0.74376  Biso   1.000  H 
  H259     1.0000 0.06418  0.05967  0.46970  Biso   1.000  H 
  H260     1.0000 0.07819  0.13508  0.43483  Biso   1.000  H 
  H261     1.0000 0.11119  0.11922  0.51063  Biso   1.000  H 
  H262     1.0000 0.31628  0.38939  0.72385  Biso   1.000  H 
  H263     1.0000 0.38724  0.37626  0.68154  Biso   1.000  H 
  H264     1.0000 0.38693  0.35852  0.76666  Biso   1.000  H 
  B203     1.0000 0.34640  0.65360  0.00000  Biso   1.000  B 
  B204     1.0000 0.40471  0.67046  0.00000  Biso   1.000  B 
  B205     1.0000 0.32954  0.59529  0.00000  Biso   1.000  B 
  B206     1.0000 0.29500  0.70500  0.00000  Biso   1.000  B 
  B207     1.0000 0.23249  0.68437  0.00000  Biso   1.000  B 
  N23      1.0000 0.20983  0.62113  0.01093  Biso   1.000  N 
  B208     1.0000 0.13051  0.72128  0.00000  Biso   1.000  B 
  B209     1.0000 0.18442  0.73248  0.00000  Biso   1.000  B 
  B210     1.0000 0.20500  0.79499  0.00000  Biso   1.000  B 
  B211     1.0000 0.26751  0.81558  0.00000  Biso   1.000  B 
  B212     1.0000 0.31563  0.76751  0.00000  Biso   1.000  B 
  B213     1.0000 0.36954  0.77872  0.00000  Biso   1.000  B 
  N24      1.0000 0.27755  0.87183  0.04867  Biso   1.000  N 
  B214     1.0000 0.17046  0.90470  0.00000  Biso   1.000  B 
  B215     1.0000 0.15360  0.84639  0.00000  Biso   1.000  B 
  B216     1.0000 0.09529  0.82953  0.00000  Biso   1.000  B 
  H265     1.0000 0.16235  0.62505  0.00357  Biso   1.000  H 
  C111     1.0000 0.21109  0.58560  0.06590  Biso   1.000  C 
  H266     1.0000 0.16741  0.59652  0.09591  Biso   1.000  H 
  H267     1.0000 0.25608  0.59230  0.09558  Biso   1.000  H 
  C112     1.0000 0.20230  0.51847  0.03187  Biso   1.000  C 
  H268     1.0000 0.24693  0.49278  0.03459  Biso   1.000  H 
  C113     1.0000 0.18930  0.51396  0.96441  Biso   1.000  C 
  H269     1.0000 0.16432  0.49217  0.04910  Biso   1.000  H 
  H270     1.0000 0.23119  0.54011  0.94809  Biso   1.000  H 
  C114     1.0000 0.12102  0.52960  0.93833  Biso   1.000  C 
  H271     1.0000 0.19623  0.46541  0.95095  Biso   1.000  H 
  C115     1.0000 0.25028  0.86484  0.11403  Biso   1.000  C 
  H272     1.0000 0.26494  0.91628  0.03350  Biso   1.000  H 
  H273     1.0000 0.19906  0.87986  0.11618  Biso   1.000  H 
  C116     1.0000 0.25660  0.79583  0.14096  Biso   1.000  C 
  H274     1.0000 0.27686  0.89467  0.14625  Biso   1.000  H 
  H275     1.0000 0.25824  0.76071  0.10301  Biso   1.000  H 
  H276     1.0000 0.20871  0.78920  0.16106  Biso   1.000  H 
  C117     1.0000 0.30030  0.76874  0.19015  Biso   1.000  C 
  C118     1.0000 0.35921  0.80247  0.21336  Biso   1.000  C 
  H277     1.0000 0.31832  0.72214  0.16756  Biso   1.000  H 
  H278     1.0000 0.26967  0.75907  0.23035  Biso   1.000  H 
  C119     1.0000 0.07100  0.57699  0.96151  Biso   1.000  C 
  H279     1.0000 0.09975  0.48883  0.96047  Biso   1.000  H 
  H280     1.0000 0.12113  0.52597  0.88709  Biso   1.000  H 
  C120     1.0000 0.35404  0.86744  0.24369  Biso   1.000  C 
  H281     1.0000 0.39239  0.79597  0.17421  Biso   1.000  H 
  H282     1.0000 0.37918  0.77215  0.25216  Biso   1.000  H 
  H283     1.0000 0.06896  0.58181  0.01357  Biso   1.000  H 
  H284     1.0000 0.02344  0.55985  0.94535  Biso   1.000  H 
  H285     1.0000 0.07405  0.62340  0.93763  Biso   1.000  H 
  H286     1.0000 0.30334  0.88051  0.24248  Biso   1.000  H 
  H287     1.0000 0.38236  0.90263  0.21841  Biso   1.000  H 
  H288     1.0000 0.37015  0.86587  0.29451  Biso   1.000  H 
  B217     1.0000 0.84640  0.84640  0.00000  Biso   1.000  B 
  B218     1.0000 0.90471  0.82954  0.00000  Biso   1.000  B 
  B219     1.0000 0.82954  0.90471  0.00000  Biso   1.000  B 
  B220     1.0000 0.79500  0.79500  0.00000  Biso   1.000  B 
  B221     1.0000 0.73249  0.81563  0.00000  Biso   1.000  B 
  N25      1.0000 0.72005  0.86182  0.05842  Biso   1.000  N 
  B222     1.0000 0.63051  0.77872  0.00000  Biso   1.000  B 
  B223     1.0000 0.68442  0.76752  0.00000  Biso   1.000  B 
  B224     1.0000 0.70500  0.70501  0.00000  Biso   1.000  B 
  B225     1.0000 0.76751  0.68442  0.00000  Biso   1.000  B 
  B226     1.0000 0.81563  0.73249  0.00000  Biso   1.000  B 
  B227     1.0000 0.86954  0.72128  0.00000  Biso   1.000  B 
  N26      1.0000 0.78268  0.62976  0.04718  Biso   1.000  N 
  B228     1.0000 0.67046  0.59530  0.00000  Biso   1.000  B 
  B229     1.0000 0.65360  0.65361  0.00000  Biso   1.000  B 
  B230     1.0000 0.59529  0.67047  0.00000  Biso   1.000  B 
  H289     1.0000 0.73713  0.90761  0.05296  Biso   1.000  H 
  C121     1.0000 0.74924  0.82559  0.11599  Biso   1.000  C 
  H290     1.0000 0.79729  0.82032  0.10415  Biso   1.000  H 
  H291     1.0000 0.72795  0.77809  0.12646  Biso   1.000  H 
  C122     1.0000 0.77557  0.86279  0.17334  Biso   1.000  C 
  H292     1.0000 0.82665  0.86865  0.18189  Biso   1.000  H 
  C123     1.0000 0.74279  0.85734  0.24008  Biso   1.000  C 
  H293     1.0000 0.76595  0.90499  0.15172  Biso   1.000  H 
  H294     1.0000 0.76759  0.83536  0.27676  Biso   1.000  H 
  C124     1.0000 0.67218  0.84149  0.23997  Biso   1.000  C 
  H295     1.0000 0.74704  0.90382  0.25579  Biso   1.000  H 
  C125     1.0000 0.80054  0.56732  0.02469  Biso   1.000  C 
  H296     1.0000 0.74682  0.62879  0.08275  Biso   1.000  H 
  H297     1.0000 0.84405  0.55118  0.05172  Biso   1.000  H 
  C126     1.0000 0.80816  0.56120  0.95534  Biso   1.000  C 
  H298     1.0000 0.76107  0.53273  0.03617  Biso   1.000  H 
  H299     1.0000 0.80201  0.51179  0.95296  Biso   1.000  H 
  H300     1.0000 0.76799  0.58340  0.93251  Biso   1.000  H 
  C127     1.0000 0.87461  0.57197  0.92740  Biso   1.000  C 
  C128     1.0000 0.89643  0.63975  0.90341  Biso   1.000  C 
  H301     1.0000 0.87445  0.53967  0.88727  Biso   1.000  H 
  H302     1.0000 0.91136  0.55361  0.96124  Biso   1.000  H 
  C129     1.0000 0.64136  0.86558  0.18097  Biso   1.000  C 
  H303     1.0000 0.64975  0.86398  0.28168  Biso   1.000  H 
  H304     1.0000 0.66279  0.79012  0.23725  Biso   1.000  H 
  C130     1.0000 0.84588  0.68519  0.87633  Biso   1.000  C 
  H305     1.0000 0.93127  0.62601  0.86528  Biso   1.000  H 
  H306     1.0000 0.92605  0.66905  0.93502  Biso   1.000  H 
  H307     1.0000 0.66677  0.90342  0.15969  Biso   1.000  H 
  H308     1.0000 0.59667  0.88054  0.19368  Biso   1.000  H 
  H309     1.0000 0.64047  0.82809  0.14592  Biso   1.000  H 
  H310     1.0000 0.84877  0.68806  0.82673  Biso   1.000  H 
  H311     1.0000 0.85630  0.73542  0.89273  Biso   1.000  H 
  H312     1.0000 0.79771  0.67143  0.88664  Biso   1.000  H 
  B231     1.0000 0.84640  0.34640  0.50000  Biso   1.000  B 
  B232     1.0000 0.90471  0.32954  0.50000  Biso   1.000  B 
  B233     1.0000 0.82954  0.40471  0.50000  Biso   1.000  B 
  B234     1.0000 0.79500  0.29500  0.50000  Biso   1.000  B 
  B235     1.0000 0.73249  0.31563  0.50000  Biso   1.000  B 
  N27      1.0000 0.71122  0.37018  0.53892  Biso   1.000  N 
  B236     1.0000 0.63051  0.27872  0.50000  Biso   1.000  B 
  B237     1.0000 0.68442  0.26751  0.50000  Biso   1.000  B 
  B238     1.0000 0.70500  0.20500  0.50000  Biso   1.000  B 
  B239     1.0000 0.76751  0.18442  0.50000  Biso   1.000  B 
  B240     1.0000 0.81563  0.23249  0.50000  Biso   1.000  B 
  B241     1.0000 0.86954  0.22128  0.50000  Biso   1.000  B 
  N28      1.0000 0.77823  0.12340  0.54067  Biso   1.000  N 
  B242     1.0000 0.67046  0.09530  0.50000  Biso   1.000  B 
  B243     1.0000 0.65360  0.15360  0.50000  Biso   1.000  B 
  B244     1.0000 0.59529  0.17046  0.50000  Biso   1.000  B 
  H313     1.0000 0.73164  0.41247  0.52514  Biso   1.000  H 
  C131     1.0000 0.72194  0.33896  0.60332  Biso   1.000  C 
  H314     1.0000 0.74029  0.29020  0.60664  Biso   1.000  H 
  H315     1.0000 0.67232  0.33411  0.61843  Biso   1.000  H 
  C132     1.0000 0.77242  0.37403  0.63435  Biso   1.000  C 
  H316     1.0000 0.82046  0.36353  0.61693  Biso   1.000  H 
  C133     1.0000 0.77421  0.36865  0.70651  Biso   1.000  C 
  H317     1.0000 0.76492  0.41845  0.61932  Biso   1.000  H 
  H318     1.0000 0.79578  0.32508  0.70794  Biso   1.000  H 
  C134     1.0000 0.71443  0.35378  0.74768  Biso   1.000  C 
  H319     1.0000 0.80951  0.39484  0.73430  Biso   1.000  H 
  C135     1.0000 0.80328  0.06246  0.51914  Biso   1.000  C 
  H320     1.0000 0.74359  0.11664  0.57683  Biso   1.000  H 
  H321     1.0000 0.84118  0.04854  0.55331  Biso   1.000  H 
  C136     1.0000 0.82958  0.07004  0.45362  Biso   1.000  C 
  H322     1.0000 0.76546  0.02378  0.51841  Biso   1.000  H 
  H323     1.0000 0.78402  0.07213  0.42661  Biso   1.000  H 
  H324     1.0000 0.85181  0.11728  0.45141  Biso   1.000  H 
  C137     1.0000 0.87621  0.01681  0.43662  Biso   1.000  C 
  C138     1.0000 0.93855  0.03818  0.40361  Biso   1.000  C 
  H325     1.0000 0.85604  0.97229  0.41477  Biso   1.000  H 
  H326     1.0000 0.89905  0.00014  0.47867  Biso   1.000  H 
  C139     1.0000 0.64876  0.36645  0.72547  Biso   1.000  C 
  H327     1.0000 0.72175  0.37819  0.79476  Biso   1.000  H 
  H328     1.0000 0.71165  0.29970  0.75073  Biso   1.000  H 
  C140     1.0000 0.95043  0.10826  0.38548  Biso   1.000  C 
  H329     1.0000 0.94657  0.01288  0.36080  Biso   1.000  H 
  H330     1.0000 0.97635  0.02934  0.43759  Biso   1.000  H 
  H331     1.0000 0.64889  0.39824  0.68585  Biso   1.000  H 
  H332     1.0000 0.62011  0.38853  0.76510  Biso   1.000  H 
  H333     1.0000 0.62556  0.32279  0.71121  Biso   1.000  H 
  H334     1.0000 0.92506  0.11547  0.34307  Biso   1.000  H 
  H335     1.0000 0.00125  0.11275  0.37699  Biso   1.000  H 
  H336     1.0000 0.93558  0.14665  0.41799  Biso   1.000  H 
  B245     1.0000 0.34640  0.84640  0.50000  Biso   1.000  B 
  B246     1.0000 0.40471  0.82954  0.50000  Biso   1.000  B 
  B247     1.0000 0.32954  0.90471  0.50000  Biso   1.000  B 
  B248     1.0000 0.29500  0.79500  0.50000  Biso   1.000  B 
  B249     1.0000 0.23249  0.81563  0.50000  Biso   1.000  B 
  N29      1.0000 0.21978  0.86607  0.55192  Biso   1.000  N 
  B250     1.0000 0.13051  0.77872  0.50000  Biso   1.000  B 
  B251     1.0000 0.18442  0.76752  0.50000  Biso   1.000  B 
  B252     1.0000 0.20500  0.70501  0.50000  Biso   1.000  B 
  B253     1.0000 0.26751  0.68442  0.50000  Biso   1.000  B 
  B254     1.0000 0.31563  0.73249  0.50000  Biso   1.000  B 
  B255     1.0000 0.36954  0.72128  0.50000  Biso   1.000  B 
  N30      1.0000 0.27685  0.62384  0.54560  Biso   1.000  N 
  B256     1.0000 0.17046  0.59530  0.50000  Biso   1.000  B 
  B257     1.0000 0.15360  0.65361  0.50000  Biso   1.000  B 
  B258     1.0000 0.09529  0.67047  0.50000  Biso   1.000  B 
  H337     1.0000 0.23826  0.91049  0.55129  Biso   1.000  H 
  C141     1.0000 0.23148  0.82484  0.60962  Biso   1.000  C 
  H338     1.0000 0.23968  0.77328  0.60514  Biso   1.000  H 
  H339     1.0000 0.18234  0.82757  0.62903  Biso   1.000  H 
  C142     1.0000 0.28597  0.85464  0.65226  Biso   1.000  C 
  H340     1.0000 0.33420  0.85335  0.63004  Biso   1.000  H 
  C143     1.0000 0.29070  0.84306  0.72609  Biso   1.000  C 
  H341     1.0000 0.27241  0.90390  0.64830  Biso   1.000  H 
  H342     1.0000 0.32501  0.80643  0.73831  Biso   1.000  H 
  C144     1.0000 0.22413  0.84041  0.75650  Biso   1.000  C 
  H343     1.0000 0.31626  0.88345  0.74469  Biso   1.000  H 
  C145     1.0000 0.29966  0.55850  0.53326  Biso   1.000  C 
  H344     1.0000 0.24167  0.62300  0.58160  Biso   1.000  H 
  H345     1.0000 0.33581  0.54939  0.56903  Biso   1.000  H 
  C146     1.0000 0.32703  0.55425  0.47004  Biso   1.000  C 
  H346     1.0000 0.26087  0.52349  0.53812  Biso   1.000  H 
  H347     1.0000 0.28291  0.54822  0.44535  Biso   1.000  H 
  H348     1.0000 0.34756  0.60058  0.45812  Biso   1.000  H 
  C147     1.0000 0.38112  0.50305  0.46737  Biso   1.000  C 
  C148     1.0000 0.41296  0.49607  0.40309  Biso   1.000  C 
  H349     1.0000 0.35674  0.46099  0.48414  Biso   1.000  H 
  H350     1.0000 0.41728  0.51493  0.50238  Biso   1.000  H 
  C149     1.0000 0.15886  0.86134  0.73429  Biso   1.000  C 
  H351     1.0000 0.23161  0.85992  0.80533  Biso   1.000  H 
  H352     1.0000 0.21466  0.78888  0.75707  Biso   1.000  H 
  C150     1.0000 0.44225  0.56081  0.39029  Biso   1.000  C 
  H353     1.0000 0.37434  0.47639  0.37318  Biso   1.000  H 
  H354     1.0000 0.45107  0.46240  0.39519  Biso   1.000  H 
  H355     1.0000 0.16393  0.89820  0.69905  Biso   1.000  H 
  H356     1.0000 0.13233  0.87818  0.77873  Biso   1.000  H 
  H357     1.0000 0.13150  0.82278  0.71253  Biso   1.000  H 
  H358     1.0000 0.41011  0.60107  0.38522  Biso   1.000  H 
  H359     1.0000 0.46617  0.55537  0.34747  Biso   1.000  H 
  H360     1.0000 0.47430  0.57235  0.42900  Biso   1.000  H 
  B259     1.0000 0.34640  0.34640  0.00000  Biso   1.000  B 
  B260     1.0000 0.40471  0.32954  0.00000  Biso   1.000  B 
  B261     1.0000 0.32954  0.40471  0.00000  Biso   1.000  B 
  B262     1.0000 0.29500  0.29500  0.00000  Biso   1.000  B 
  B263     1.0000 0.23249  0.31563  0.00000  Biso   1.000  B 
  N31      1.0000 0.21292  0.38134  0.01542  Biso   1.000  N 
  B264     1.0000 0.13051  0.27872  0.00000  Biso   1.000  B 
  B265     1.0000 0.18442  0.26751  0.00000  Biso   1.000  B 
  B266     1.0000 0.20500  0.20500  0.00000  Biso   1.000  B 
  B267     1.0000 0.26751  0.18442  0.00000  Biso   1.000  B 
  B268     1.0000 0.31563  0.23249  0.00000  Biso   1.000  B 
  B269     1.0000 0.36954  0.22128  0.00000  Biso   1.000  B 
  N32      1.0000 0.28448  0.13477  0.05185  Biso   1.000  N 
  B270     1.0000 0.17046  0.09530  0.00000  Biso   1.000  B 
  B271     1.0000 0.15360  0.15360  0.00000  Biso   1.000  B 
  B272     1.0000 0.09529  0.17046  0.00000  Biso   1.000  B 
  H361     1.0000 0.16656  0.38614  0.99777  Biso   1.000  H 
  C151     1.0000 0.20150  0.37781  0.08214  Biso   1.000  C 
  H362     1.0000 0.16621  0.33883  0.09095  Biso   1.000  H 
  H363     1.0000 0.18176  0.41798  0.10291  Biso   1.000  H 
  C152     1.0000 0.26614  0.36407  0.12116  Biso   1.000  C 
  H364     1.0000 0.28481  0.32196  0.10720  Biso   1.000  H 
  C153     1.0000 0.25305  0.35378  0.19059  Biso   1.000  C 
  H365     1.0000 0.30343  0.39868  0.11628  Biso   1.000  H 
  H366     1.0000 0.30437  0.35082  0.20766  Biso   1.000  H 
  C154     1.0000 0.20555  0.29903  0.19953  Biso   1.000  C 
  H367     1.0000 0.23725  0.39342  0.21850  Biso   1.000  H 
  C155     1.0000 0.29378  0.06977  0.04024  Biso   1.000  C 
  H368     1.0000 0.25769  0.14457  0.09429  Biso   1.000  H 
  H369     1.0000 0.34210  0.05357  0.05783  Biso   1.000  H 
  C156     1.0000 0.27287  0.03647  0.98242  Biso   1.000  C 
  H370     1.0000 0.25649  0.05385  0.06741  Biso   1.000  H 
  H371     1.0000 0.23087  0.00562  0.99103  Biso   1.000  H 
  H372     1.0000 0.26233  0.06961  0.94391  Biso   1.000  H 
  C157     1.0000 0.32064  0.98758  0.96285  Biso   1.000  C 
  C158     1.0000 0.37737  0.01222  0.92378  Biso   1.000  C 
  H373     1.0000 0.30035  0.94068  0.94117  Biso   1.000  H 
  H374     1.0000 0.33776  0.97193  0.00714  Biso   1.000  H 
  C159     1.0000 0.14143  0.32886  0.21150  Biso   1.000  C 
  H375     1.0000 0.21806  0.26851  0.24325  Biso   1.000  H 
  H376     1.0000 0.20489  0.26606  0.15596  Biso   1.000  H 
  C160     1.0000 0.37399  0.08179  0.90225  Biso   1.000  C 
  H377     1.0000 0.37806  0.98123  0.88160  Biso   1.000  H 
  H378     1.0000 0.42052  0.00397  0.94821  Biso   1.000  H 
  H379     1.0000 0.11903  0.34748  0.17063  Biso   1.000  H 
  H380     1.0000 0.14858  0.36945  0.24393  Biso   1.000  H 
  H381     1.0000 0.10999  0.29260  0.23075  Biso   1.000  H 
  H382     1.0000 0.34287  0.08142  0.86809  Biso   1.000  H 
  H383     1.0000 0.41927  0.10188  0.88104  Biso   1.000  H 
  H384     1.0000 0.35223  0.11734  0.93626  Biso   1.000  H 
  B273     1.0000 0.00000  0.84640  0.15360  Biso   1.000  B 
  B274     1.0000 0.00000  0.90471  0.17046  Biso   1.000  B 
  B275     1.0000 0.00000  0.82954  0.09529  Biso   1.000  B 
  B276     1.0000 0.00000  0.79500  0.20500  Biso   1.000  B 
  B277     1.0000 0.00000  0.73249  0.18437  Biso   1.000  B 
  N33      1.0000 0.06000  0.70991  0.14519  Biso   1.000  N 
  B278     1.0000 0.00000  0.63051  0.22128  Biso   1.000  B 
  B279     1.0000 0.00000  0.68442  0.23249  Biso   1.000  B 
  B280     1.0000 0.00000  0.70500  0.29500  Biso   1.000  B 
  B281     1.0000 0.00000  0.76751  0.31558  Biso   1.000  B 
  B282     1.0000 0.00000  0.81563  0.26751  Biso   1.000  B 
  B283     1.0000 0.00000  0.86954  0.27872  Biso   1.000  B 
  N34      1.0000 0.02165  0.78631  0.38141  Biso   1.000  N 
  B284     1.0000 0.00000  0.67046  0.40470  Biso   1.000  B 
  B285     1.0000 0.00000  0.65360  0.34640  Biso   1.000  B 
  B286     1.0000 0.00000  0.59529  0.32954  Biso   1.000  B 
  H385     1.0000 0.09620  0.68731  0.17445  Biso   1.000  H 
  C161     1.0000 0.08309  0.73713  0.09405  Biso   1.000  C 
  H386     1.0000 0.12934  0.71118  0.09235  Biso   1.000  H 
  H387     1.0000 0.09635  0.78697  0.10419  Biso   1.000  H 
  C162     1.0000 0.03611  0.71842  0.04417  Biso   1.000  C 
  H388     1.0000 0.04134  0.74801  0.00264  Biso   1.000  H 
  C163     1.0000 0.96695  0.71283  0.05461  Biso   1.000  C 
  H389     1.0000 0.05456  0.67307  0.02997  Biso   1.000  H 
  H390     1.0000 0.93853  0.73988  0.08687  Biso   1.000  H 
  C164     1.0000 0.94545  0.64358  0.05291  Biso   1.000  C 
  H391     1.0000 0.95540  0.73261  0.00776  Biso   1.000  H 
  C165     1.0000 0.08888  0.76742  0.39181  Biso   1.000  C 
  H392     1.0000 0.98841  0.77370  0.41649  Biso   1.000  H 
  H393     1.0000 0.08482  0.73872  0.42955  Biso   1.000  H 
  C166     1.0000 0.13280  0.72910  0.34556  Biso   1.000  C 
  H394     1.0000 0.11538  0.80954  0.40403  Biso   1.000  H 
  H395     1.0000 0.11417  0.68006  0.33493  Biso   1.000  H 
  H396     1.0000 0.17765  0.72217  0.37004  Biso   1.000  H 
  C167     1.0000 0.14497  0.76207  0.28088  Biso   1.000  C 
  C168     1.0000 0.17090  0.83241  0.28615  Biso   1.000  C 
  H397     1.0000 0.10291  0.76165  0.25192  Biso   1.000  H 
  H398     1.0000 0.17835  0.72992  0.25621  Biso   1.000  H 
  C169     1.0000 0.96901  0.60486  0.10272  Biso   1.000  C 
  H399     1.0000 0.96488  0.62244  0.00989  Biso   1.000  H 
  H400     1.0000 0.89398  0.64003  0.05403  Biso   1.000  H 
  C170     1.0000 0.22425  0.84466  0.33789  Biso   1.000  C 
  H401     1.0000 0.12837  0.85497  0.29253  Biso   1.000  H 
  H402     1.0000 0.19016  0.85108  0.24023  Biso   1.000  H 
  H403     1.0000 0.02312  0.60380  0.10912  Biso   1.000  H 
  H404     1.0000 0.95631  0.55982  0.07696  Biso   1.000  H 
  H405     1.0000 0.94685  0.60390  0.14740  Biso   1.000  H 
  H406     1.0000 0.21389  0.82171  0.38240  Biso   1.000  H 
  H407     1.0000 0.22717  0.89475  0.34734  Biso   1.000  H 
  H408     1.0000 0.27239  0.82962  0.32386  Biso   1.000  H 
  B287     1.0000 0.00000  0.34640  0.65360  Biso   1.000  B 
  B288     1.0000 0.00000  0.40471  0.67046  Biso   1.000  B 
  B289     1.0000 0.00000  0.32954  0.59529  Biso   1.000  B 
  B290     1.0000 0.00000  0.29500  0.70500  Biso   1.000  B 
  B291     1.0000 0.00000  0.23249  0.68437  Biso   1.000  B 
  N35      1.0000 0.05353  0.21199  0.64065  Biso   1.000  N 
  B292     1.0000 0.00000  0.13051  0.72128  Biso   1.000  B 
  B293     1.0000 0.00000  0.18442  0.73248  Biso   1.000  B 
  B294     1.0000 0.00000  0.20500  0.79499  Biso   1.000  B 
  B295     1.0000 0.00000  0.26751  0.81558  Biso   1.000  B 
  B296     1.0000 0.00000  0.31563  0.76751  Biso   1.000  B 
  B297     1.0000 0.00000  0.36954  0.77872  Biso   1.000  B 
  N36      1.0000 0.04719  0.28014  0.87182  Biso   1.000  N 
  B298     1.0000 0.00000  0.17046  0.90470  Biso   1.000  B 
  B299     1.0000 0.00000  0.15360  0.84639  Biso   1.000  B 
  B300     1.0000 0.00000  0.09529  0.82953  Biso   1.000  B 
  H409     1.0000 0.09292  0.21582  0.67237  Biso   1.000  H 
  C171     1.0000 0.07468  0.23751  0.58814  Biso   1.000  C 
  H410     1.0000 0.11045  0.19705  0.58359  Biso   1.000  H 
  H411     1.0000 0.10179  0.28317  0.59858  Biso   1.000  H 
  C172     1.0000 0.02592  0.22755  0.53372  Biso   1.000  C 
  H412     1.0000 0.01233  0.27178  0.50945  Biso   1.000  H 
  C173     1.0000 0.96744  0.19233  0.54650  Biso   1.000  C 
  H413     1.0000 0.04509  0.19766  0.49988  Biso   1.000  H 
  H414     1.0000 0.94118  0.22275  0.57986  Biso   1.000  H 
  C174     1.0000 0.96368  0.12268  0.53723  Biso   1.000  C 
  H415     1.0000 0.95194  0.20273  0.49942  Biso   1.000  H 
  C175     1.0000 0.11221  0.25202  0.85850  Biso   1.000  C 
  H416     1.0000 0.03291  0.27129  0.91733  Biso   1.000  H 
  H417     1.0000 0.11409  0.20133  0.87560  Biso   1.000  H 
  C176     1.0000 0.13532  0.25873  0.78927  Biso   1.000  C 
  H418     1.0000 0.14508  0.27735  0.88781  Biso   1.000  H 
  H419     1.0000 0.09664  0.24597  0.76006  Biso   1.000  H 
  H420     1.0000 0.17106  0.22570  0.77378  Biso   1.000  H 
  C177     1.0000 0.15421  0.32451  0.76510  Biso   1.000  C 
  C178     1.0000 0.20237  0.36774  0.80115  Biso   1.000  C 
  H421     1.0000 0.11211  0.35548  0.75460  Biso   1.000  H 
  H422     1.0000 0.16879  0.31250  0.71850  Biso   1.000  H 
  C179     1.0000 0.99395  0.08387  0.58205  Biso   1.000  C 
  H423     1.0000 0.98893  0.11296  0.49458  Biso   1.000  H 
  H424     1.0000 0.91343  0.10808  0.53212  Biso   1.000  H 
  C180     1.0000 0.24238  0.35755  0.86000  Biso   1.000  C 
  H425     1.0000 0.17242  0.40401  0.81740  Biso   1.000  H 
  H426     1.0000 0.23081  0.38881  0.76764  Biso   1.000  H 
  H427     1.0000 0.03717  0.10899  0.59907  Biso   1.000  H 
  H428     1.0000 0.00890  0.03907  0.55861  Biso   1.000  H 
  H429     1.0000 0.95864  0.07255  0.62124  Biso   1.000  H 
  H430     1.0000 0.23540  0.31201  0.88404  Biso   1.000  H 
  H431     1.0000 0.23928  0.39573  0.89646  Biso   1.000  H 
  H432     1.0000 0.29268  0.35838  0.84185  Biso   1.000  H 
  B301     1.0000 0.50000  0.84640  0.65360  Biso   1.000  B 
  B302     1.0000 0.50000  0.90471  0.67046  Biso   1.000  B 
  B303     1.0000 0.50000  0.82954  0.59529  Biso   1.000  B 
  B304     1.0000 0.50000  0.79500  0.70500  Biso   1.000  B 
  B305     1.0000 0.50000  0.73249  0.68437  Biso   1.000  B 
  N37      1.0000 0.55891  0.70816  0.64497  Biso   1.000  N 
  B306     1.0000 0.50000  0.63051  0.72128  Biso   1.000  B 
  B307     1.0000 0.50000  0.68442  0.73248  Biso   1.000  B 
  B308     1.0000 0.50000  0.70500  0.79499  Biso   1.000  B 
  B309     1.0000 0.50000  0.76751  0.81558  Biso   1.000  B 
  B310     1.0000 0.50000  0.81563  0.76751  Biso   1.000  B 
  B311     1.0000 0.50000  0.86954  0.77872  Biso   1.000  B 
  N38      1.0000 0.49849  0.78724  0.88366  Biso   1.000  N 
  B312     1.0000 0.50000  0.67046  0.90470  Biso   1.000  B 
  B313     1.0000 0.50000  0.65360  0.84639  Biso   1.000  B 
  B314     1.0000 0.50000  0.59529  0.82953  Biso   1.000  B 
  H433     1.0000 0.59647  0.70689  0.67972  Biso   1.000  H 
  C181     1.0000 0.58096  0.74015  0.59472  Biso   1.000  C 
  H434     1.0000 0.63037  0.72376  0.59500  Biso   1.000  H 
  H435     1.0000 0.58973  0.78776  0.60620  Biso   1.000  H 
  C182     1.0000 0.53739  0.71548  0.54100  Biso   1.000  C 
  H436     1.0000 0.54430  0.73658  0.49485  Biso   1.000  H 
  C183     1.0000 0.46752  0.71586  0.54731  Biso   1.000  C 
  H437     1.0000 0.55471  0.66656  0.53881  Biso   1.000  H 
  H438     1.0000 0.44064  0.74242  0.58440  Biso   1.000  H 
  C184     1.0000 0.43461  0.64871  0.53739  Biso   1.000  C 
  H439     1.0000 0.45649  0.74089  0.50284  Biso   1.000  H 
  C185     1.0000 0.56235  0.78588  0.90994  Biso   1.000  C 
  H440     1.0000 0.45733  0.76441  0.90487  Biso   1.000  H 
  H441     1.0000 0.56183  0.74586  0.93916  Biso   1.000  H 
  C186     1.0000 0.62048  0.77719  0.86126  Biso   1.000  C 
  H442     1.0000 0.56724  0.82563  0.94130  Biso   1.000  H 
  H443     1.0000 0.60871  0.72936  0.84458  Biso   1.000  H 
  H444     1.0000 0.66433  0.77217  0.88969  Biso   1.000  H 
  C187     1.0000 0.63687  0.82095  0.80064  Biso   1.000  C 
  C188     1.0000 0.70413  0.84712  0.80206  Biso   1.000  C 
  H445     1.0000 0.61122  0.86341  0.78711  Biso   1.000  H 
  H446     1.0000 0.63308  0.79268  0.75610  Biso   1.000  H 
  C189     1.0000 0.46515  0.59834  0.57148  Biso   1.000  C 
  H447     1.0000 0.43341  0.63899  0.48516  Biso   1.000  H 
  H448     1.0000 0.38764  0.64669  0.55563  Biso   1.000  H 
  C190     1.0000 0.73617  0.85913  0.86595  Biso   1.000  C 
  H449     1.0000 0.70875  0.88819  0.76984  Biso   1.000  H 
  H450     1.0000 0.72934  0.80973  0.77950  Biso   1.000  H 
  H451     1.0000 0.49160  0.61774  0.61057  Biso   1.000  H 
  H452     1.0000 0.49843  0.58219  0.53621  Biso   1.000  H 
  H453     1.0000 0.43341  0.56003  0.59049  Biso   1.000  H 
  H454     1.0000 0.75832  0.81415  0.88009  Biso   1.000  H 
  H455     1.0000 0.70080  0.87596  0.90346  Biso   1.000  H 
  H456     1.0000 0.77347  0.89544  0.86236  Biso   1.000  H 
  B315     1.0000 0.50000  0.34640  0.15360  Biso   1.000  B 
  B316     1.0000 0.50000  0.40471  0.17046  Biso   1.000  B 
  B317     1.0000 0.50000  0.32954  0.09529  Biso   1.000  B 
  B318     1.0000 0.50000  0.29500  0.20500  Biso   1.000  B 
  B319     1.0000 0.50000  0.23249  0.18437  Biso   1.000  B 
  N39      1.0000 0.49858  0.21432  0.11817  Biso   1.000  N 
  B320     1.0000 0.50000  0.13051  0.22128  Biso   1.000  B 
  B321     1.0000 0.50000  0.18442  0.23249  Biso   1.000  B 
  B322     1.0000 0.50000  0.20500  0.29500  Biso   1.000  B 
  B323     1.0000 0.50000  0.26751  0.31558  Biso   1.000  B 
  B324     1.0000 0.50000  0.31563  0.26751  Biso   1.000  B 
  B325     1.0000 0.50000  0.36954  0.27872  Biso   1.000  B 
  N40      1.0000 0.54883  0.27991  0.36898  Biso   1.000  N 
  B326     1.0000 0.50000  0.17046  0.40470  Biso   1.000  B 
  B327     1.0000 0.50000  0.15360  0.34640  Biso   1.000  B 
  B328     1.0000 0.50000  0.09529  0.32954  Biso   1.000  B 
  H457     1.0000 0.48782  0.16582  0.12099  Biso   1.000  H 
  C191     1.0000 0.55233  0.21117  0.07879  Biso   1.000  C 
  H458     1.0000 0.58316  0.16693  0.08862  Biso   1.000  H 
  H459     1.0000 0.58321  0.25190  0.08257  Biso   1.000  H 
  C192     1.0000 0.51955  0.20834  0.01293  Biso   1.000  C 
  H460     1.0000 0.50799  0.25650  0.99926  Biso   1.000  H 
  C193     1.0000 0.46374  0.16971  0.00120  Biso   1.000  C 
  H461     1.0000 0.54962  0.18661  0.97885  Biso   1.000  H 
  H462     1.0000 0.43328  0.17665  0.04193  Biso   1.000  H 
  C194     1.0000 0.46749  0.10183  0.99502  Biso   1.000  C 
  H463     1.0000 0.44330  0.18575  0.95584  Biso   1.000  H 
  C195     1.0000 0.61478  0.26546  0.34952  Biso   1.000  C 
  H464     1.0000 0.54759  0.25901  0.41323  Biso   1.000  H 
  H465     1.0000 0.64195  0.26905  0.39316  Biso   1.000  H 
  C196     1.0000 0.63525  0.19738  0.32699  Biso   1.000  C 
  H466     1.0000 0.62770  0.30817  0.32487  Biso   1.000  H 
  H467     1.0000 0.60872  0.16151  0.35030  Biso   1.000  H 
  H468     1.0000 0.68193  0.19235  0.34679  Biso   1.000  H 
  C197     1.0000 0.64539  0.18287  0.25253  Biso   1.000  C 
  C198     1.0000 0.67461  0.23278  0.20989  Biso   1.000  C 
  H469     1.0000 0.60595  0.17255  0.22641  Biso   1.000  H 
  H470     1.0000 0.67327  0.14000  0.25147  Biso   1.000  H 
  C199     1.0000 0.48308  0.06450  0.04891  Biso   1.000  C 
  H471     1.0000 0.48567  0.08277  0.95105  Biso   1.000  H 
  H472     1.0000 0.41860  0.09361  0.99929  Biso   1.000  H 
  C200     1.0000 0.64899  0.30100  0.21121  Biso   1.000  C 
  H473     1.0000 0.66700  0.21748  0.15944  Biso   1.000  H 
  H474     1.0000 0.72348  0.23713  0.21996  Biso   1.000  H 
  H475     1.0000 0.52179  0.08862  0.07572  Biso   1.000  H 
  H476     1.0000 0.49987  0.02108  0.02615  Biso   1.000  H 
  H477     1.0000 0.44185  0.05228  0.07936  Biso   1.000  H 
  H478     1.0000 0.67917  0.33246  0.24033  Biso   1.000  H 
  H479     1.0000 0.60582  0.29720  0.23449  Biso   1.000  H 
  H480     1.0000 0.63813  0.32520  0.16325  Biso   1.000  H 
  B329     1.0000 0.00000  0.84640  0.84640  Biso   1.000  B 
  B330     1.0000 0.00000  0.90471  0.82954  Biso   1.000  B 
  B331     1.0000 0.00000  0.82954  0.90471  Biso   1.000  B 
  B332     1.0000 0.00000  0.79500  0.79500  Biso   1.000  B 
  B333     1.0000 0.00000  0.73249  0.81563  Biso   1.000  B 
  N41      1.0000 0.05442  0.71864  0.86194  Biso   1.000  N 
  B334     1.0000 0.00000  0.63051  0.77872  Biso   1.000  B 
  B335     1.0000 0.00000  0.68442  0.76752  Biso   1.000  B 
  B336     1.0000 0.00000  0.70500  0.70501  Biso   1.000  B 
  B337     1.0000 0.00000  0.76751  0.68442  Biso   1.000  B 
  B338     1.0000 0.00000  0.81563  0.73249  Biso   1.000  B 
  B339     1.0000 0.00000  0.86954  0.72128  Biso   1.000  B 
  N42      1.0000 0.04314  0.78466  0.62598  Biso   1.000  N 
  B340     1.0000 0.00000  0.67046  0.59530  Biso   1.000  B 
  B341     1.0000 0.00000  0.65360  0.65361  Biso   1.000  B 
  B342     1.0000 0.00000  0.59529  0.67047  Biso   1.000  B 
  H481     1.0000 0.04445  0.73217  0.90752  Biso   1.000  H 
  C201     1.0000 0.11172  0.74890  0.82911  Biso   1.000  C 
  H482     1.0000 0.10242  0.79178  0.80755  Biso   1.000  H 
  H483     1.0000 0.12825  0.71928  0.78780  Biso   1.000  H 
  C202     1.0000 0.15872  0.78184  0.86938  Biso   1.000  C 
  H484     1.0000 0.15894  0.83561  0.86947  Biso   1.000  H 
  C203     1.0000 0.22733  0.75078  0.86301  Biso   1.000  C 
  H485     1.0000 0.13638  0.77289  0.91221  Biso   1.000  H 
  H486     1.0000 0.26415  0.77658  0.83901  Biso   1.000  H 
  C204     1.0000 0.23152  0.68118  0.84746  Biso   1.000  C 
  H487     1.0000 0.24885  0.75084  0.90568  Biso   1.000  H 
  C205     1.0000 0.02749  0.80167  0.56046  Biso   1.000  C 
  H488     1.0000 0.08955  0.76500  0.63024  Biso   1.000  H 
  H489     1.0000 0.05906  0.84138  0.54860  Biso   1.000  H 
  C206     1.0000 0.96057  0.82310  0.54893  Biso   1.000  C 
  H490     1.0000 0.03774  0.75978  0.52993  Biso   1.000  H 
  H491     1.0000 0.95730  0.80216  0.50179  Biso   1.000  H 
  H492     1.0000 0.92701  0.79809  0.58035  Biso   1.000  H 
  C207     1.0000 0.94123  0.89204  0.52993  Biso   1.000  C 
  C208     1.0000 0.90422  0.93793  0.57184  Biso   1.000  C 
  H493     1.0000 0.91933  0.89540  0.48041  Biso   1.000  H 
  H494     1.0000 0.98674  0.91567  0.52953  Biso   1.000  H 
  C209     1.0000 0.18006  0.64456  0.87406  Biso   1.000  C 
  H495     1.0000 0.27613  0.65835  0.86983  Biso   1.000  H 
  H496     1.0000 0.23180  0.67167  0.79487  Biso   1.000  H 
  C210     1.0000 0.90705  0.92618  0.64104  Biso   1.000  C 
  H497     1.0000 0.85674  0.94847  0.55706  Biso   1.000  H 
  H498     1.0000 0.92806  0.98286  0.56891  Biso   1.000  H 
  H499     1.0000 0.15860  0.66216  0.91534  Biso   1.000  H 
  H500     1.0000 0.19841  0.59712  0.87886  Biso   1.000  H 
  H501     1.0000 0.14093  0.64049  0.84181  Biso   1.000  H 
  H502     1.0000 0.85981  0.91794  0.65958  Biso   1.000  H 
  H503     1.0000 0.92645  0.96842  0.66591  Biso   1.000  H 
  H504     1.0000 0.93520  0.88333  0.64822  Biso   1.000  H 
  B343     1.0000 0.00000  0.34640  0.34640  Biso   1.000  B 
  B344     1.0000 0.00000  0.40471  0.32954  Biso   1.000  B 
  B345     1.0000 0.00000  0.32954  0.40471  Biso   1.000  B 
  B346     1.0000 0.00000  0.29500  0.29500  Biso   1.000  B 
  B347     1.0000 0.00000  0.23249  0.31563  Biso   1.000  B 
  N43      1.0000 0.04860  0.21616  0.36844  Biso   1.000  N 
  B348     1.0000 0.00000  0.13051  0.27872  Biso   1.000  B 
  B349     1.0000 0.00000  0.18442  0.26751  Biso   1.000  B 
  B350     1.0000 0.00000  0.20500  0.20500  Biso   1.000  B 
  B351     1.0000 0.00000  0.26751  0.18442  Biso   1.000  B 
  B352     1.0000 0.00000  0.31563  0.23249  Biso   1.000  B 
  B353     1.0000 0.00000  0.36954  0.22128  Biso   1.000  B 
  N44      1.0000 0.04497  0.27923  0.12651  Biso   1.000  N 
  B354     1.0000 0.00000  0.17046  0.09530  Biso   1.000  B 
  B355     1.0000 0.00000  0.15360  0.15360  Biso   1.000  B 
  B356     1.0000 0.00000  0.09529  0.17046  Biso   1.000  B 
  H505     1.0000 0.03573  0.23493  0.41212  Biso   1.000  H 
  C211     1.0000 0.11087  0.23555  0.33988  Biso   1.000  C 
  H506     1.0000 0.12290  0.22042  0.29041  Biso   1.000  H 
  H507     1.0000 0.14170  0.20688  0.36688  Biso   1.000  H 
  C212     1.0000 0.13287  0.30462  0.35294  Biso   1.000  C 
  H508     1.0000 0.10832  0.33938  0.32430  Biso   1.000  H 
  C213     1.0000 0.20545  0.32841  0.35548  Biso   1.000  C 
  H509     1.0000 0.11362  0.31008  0.39947  Biso   1.000  H 
  H510     1.0000 0.21069  0.36218  0.31454  Biso   1.000  H 
  C214     1.0000 0.26876  0.28406  0.35191  Biso   1.000  C 
  H511     1.0000 0.21659  0.36182  0.39567  Biso   1.000  H 
  C215     1.0000 0.02741  0.29410  0.06228  Biso   1.000  C 
  H512     1.0000 0.08749  0.25253  0.12676  Biso   1.000  H 
  H513     1.0000 0.05547  0.33529  0.05088  Biso   1.000  H 
  C216     1.0000 0.95895  0.30302  0.04981  Biso   1.000  C 
  H514     1.0000 0.04016  0.25683  0.02875  Biso   1.000  H 
  H515     1.0000 0.94282  0.25432  0.05160  Biso   1.000  H 
  H516     1.0000 0.93625  0.32672  0.08939  Biso   1.000  H 
  C217     1.0000 0.95349  0.33919  0.98340  Biso   1.000  C 
  C218     1.0000 0.90175  0.38785  0.96253  Biso   1.000  C 
  H517     1.0000 0.94903  0.30322  0.94560  Biso   1.000  H 
  H518     1.0000 0.99608  0.36185  0.98000  Biso   1.000  H 
  C219     1.0000 0.26451  0.21014  0.36286  Biso   1.000  C 
  H519     1.0000 0.30209  0.30288  0.39115  Biso   1.000  H 
  H520     1.0000 0.29660  0.29627  0.30841  Biso   1.000  H 
  C220     1.0000 0.89580  0.43791  0.01516  Biso   1.000  C 
  H521     1.0000 0.85968  0.36284  0.94610  Biso   1.000  H 
  H522     1.0000 0.90791  0.41895  0.92118  Biso   1.000  H 
  H523     1.0000 0.22775  0.20761  0.39558  Biso   1.000  H 
  H524     1.0000 0.30886  0.19265  0.38515  Biso   1.000  H 
  H525     1.0000 0.25184  0.18180  0.32089  Biso   1.000  H 
  H526     1.0000 0.89174  0.41869  0.06195  Biso   1.000  H 
  H527     1.0000 0.85564  0.46367  0.00760  Biso   1.000  H 
  H528     1.0000 0.93480  0.47034  0.01152  Biso   1.000  H 
  B357     1.0000 0.50000  0.84640  0.34640  Biso   1.000  B 
  B358     1.0000 0.50000  0.90471  0.32954  Biso   1.000  B 
  B359     1.0000 0.50000  0.82954  0.40471  Biso   1.000  B 
  B360     1.0000 0.50000  0.79500  0.29500  Biso   1.000  B 
  B361     1.0000 0.50000  0.73249  0.31563  Biso   1.000  B 
  N45      1.0000 0.51425  0.71552  0.38532  Biso   1.000  N 
  B362     1.0000 0.50000  0.63051  0.27872  Biso   1.000  B 
  B363     1.0000 0.50000  0.68442  0.26751  Biso   1.000  B 
  B364     1.0000 0.50000  0.70500  0.20500  Biso   1.000  B 
  B365     1.0000 0.50000  0.76751  0.18442  Biso   1.000  B 
  B366     1.0000 0.50000  0.81563  0.23249  Biso   1.000  B 
  B367     1.0000 0.50000  0.86954  0.22128  Biso   1.000  B 
  N46      1.0000 0.55044  0.77860  0.13285  Biso   1.000  N 
  B368     1.0000 0.50000  0.67046  0.09530  Biso   1.000  B 
  B369     1.0000 0.50000  0.65360  0.15360  Biso   1.000  B 
  B370     1.0000 0.50000  0.59529  0.17046  Biso   1.000  B 
  H529     1.0000 0.48907  0.67639  0.40325  Biso   1.000  H 
  C221     1.0000 0.58305  0.70191  0.37733  Biso   1.000  C 
  H530     1.0000 0.58935  0.66240  0.34022  Biso   1.000  H 
  H531     1.0000 0.60380  0.68300  0.41970  Biso   1.000  H 
  C222     1.0000 0.62158  0.76321  0.36663  Biso   1.000  C 
  H532     1.0000 0.60530  0.78924  0.32401  Biso   1.000  H 
  C223     1.0000 0.69131  0.75567  0.35459  Biso   1.000  C 
  H533     1.0000 0.61465  0.79308  0.40347  Biso   1.000  H 
  H534     1.0000 0.71072  0.80258  0.34572  Biso   1.000  H 
  C224     1.0000 0.69952  0.70440  0.30298  Biso   1.000  C 
  H535     1.0000 0.72063  0.74209  0.39380  Biso   1.000  H 
  C225     1.0000 0.53913  0.78782  0.06625  Biso   1.000  C 
  H536     1.0000 0.58845  0.74478  0.13971  Biso   1.000  H 
  H537     1.0000 0.57010  0.82836  0.05266  Biso   1.000  H 
  C226     1.0000 0.47374  0.79030  0.04184  Biso   1.000  C 
  H538     1.0000 0.55874  0.74802  0.04660  Biso   1.000  H 
  H539     1.0000 0.47346  0.75414  0.00378  Biso   1.000  H 
  H540     1.0000 0.43622  0.77540  0.07665  Biso   1.000  H 
  C227     1.0000 0.46227  0.85420  0.00590  Biso   1.000  C 
  C228     1.0000 0.41407  0.89409  0.03257  Biso   1.000  C 
  H541     1.0000 0.44647  0.84472  0.95497  Biso   1.000  H 
  H542     1.0000 0.50737  0.87912  0.00122  Biso   1.000  H 
  C229     1.0000 0.72868  0.64963  0.33634  Biso   1.000  C 
  H543     1.0000 0.73043  0.71762  0.26500  Biso   1.000  H 
  H544     1.0000 0.65599  0.68918  0.27511  Biso   1.000  H 
  C230     1.0000 0.39253  0.88824  0.09803  Biso   1.000  C 
  H545     1.0000 0.37363  0.88574  0.99991  Biso   1.000  H 
  H546     1.0000 0.43019  0.94313  0.02454  Biso   1.000  H 
  H547     1.0000 0.69431  0.64204  0.36754  Biso   1.000  H 
  H548     1.0000 0.77113  0.65475  0.36796  Biso   1.000  H 
  H549     1.0000 0.73279  0.61262  0.30108  Biso   1.000  H 
  H550     1.0000 0.36510  0.84591  0.09974  Biso   1.000  H 
  H551     1.0000 0.36544  0.93239  0.11085  Biso   1.000  H 
  H552     1.0000 0.42928  0.87964  0.13217  Biso   1.000  H 
  B371     1.0000 0.50000  0.34640  0.84640  Biso   1.000  B 
  B372     1.0000 0.50000  0.40471  0.82954  Biso   1.000  B 
  B373     1.0000 0.50000  0.32954  0.90471  Biso   1.000  B 
  B374     1.0000 0.50000  0.29500  0.79500  Biso   1.000  B 
  B375     1.0000 0.50000  0.23249  0.81563  Biso   1.000  B 
  N47      1.0000 0.55493  0.21747  0.86236  Biso   1.000  N 
  B376     1.0000 0.50000  0.13051  0.77872  Biso   1.000  B 
  B377     1.0000 0.50000  0.18442  0.76752  Biso   1.000  B 
  B378     1.0000 0.50000  0.20500  0.70501  Biso   1.000  B 
  B379     1.0000 0.50000  0.26751  0.68442  Biso   1.000  B 
  B380     1.0000 0.50000  0.31563  0.73249  Biso   1.000  B 
  B381     1.0000 0.50000  0.36954  0.72128  Biso   1.000  B 
  N48      1.0000 0.55335  0.28325  0.63700  Biso   1.000  N 
  B382     1.0000 0.50000  0.17046  0.59530  Biso   1.000  B 
  B383     1.0000 0.50000  0.15360  0.65361  Biso   1.000  B 
  B384     1.0000 0.50000  0.09529  0.67047  Biso   1.000  B 
  H553     1.0000 0.54846  0.24290  0.90262  Biso   1.000  H 
  C231     1.0000 0.61140  0.24660  0.82558  Biso   1.000  C 
  H554     1.0000 0.60582  0.28956  0.79897  Biso   1.000  H 
  H555     1.0000 0.62510  0.21297  0.78591  Biso   1.000  H 
  C232     1.0000 0.65940  0.28161  0.86524  Biso   1.000  C 
  H556     1.0000 0.65655  0.33500  0.86763  Biso   1.000  H 
  C233     1.0000 0.72895  0.26003  0.85936  Biso   1.000  C 
  H557     1.0000 0.64092  0.26643  0.90840  Biso   1.000  H 
  H558     1.0000 0.76010  0.29524  0.83697  Biso   1.000  H 
  C234     1.0000 0.73142  0.19626  0.82775  Biso   1.000  C 
  H559     1.0000 0.74962  0.25439  0.90401  Biso   1.000  H 
  C235     1.0000 0.54814  0.28214  0.57157  Biso   1.000  C 
  H560     1.0000 0.59442  0.25641  0.65042  Biso   1.000  H 
  H561     1.0000 0.57625  0.32143  0.55918  Biso   1.000  H 
  C236     1.0000 0.48398  0.27263  0.53535  Biso   1.000  C 
  H562     1.0000 0.57553  0.24159  0.56355  Biso   1.000  H 
  H563     1.0000 0.49369  0.22838  0.50804  Biso   1.000  H 
  H564     1.0000 0.44200  0.26591  0.56737  Biso   1.000  H 
  C237     1.0000 0.47664  0.32013  0.47692  Biso   1.000  C 
  C238     1.0000 0.43678  0.37645  0.49082  Biso   1.000  C 
  H565     1.0000 0.45407  0.29473  0.43458  Biso   1.000  H 
  H566     1.0000 0.52450  0.33877  0.46559  Biso   1.000  H 
  C239     1.0000 0.69251  0.14575  0.85937  Biso   1.000  C 
  H567     1.0000 0.77884  0.18600  0.84262  Biso   1.000  H 
  H568     1.0000 0.72394  0.19969  0.77509  Biso   1.000  H 
  C240     1.0000 0.43236  0.38962  0.56151  Biso   1.000  C 
  H569     1.0000 0.39094  0.37284  0.46258  Biso   1.000  H 
  H570     1.0000 0.46633  0.41691  0.47454  Biso   1.000  H 
  H571     1.0000 0.69248  0.15593  0.90471  Biso   1.000  H 
  H572     1.0000 0.71733  0.10312  0.85350  Biso   1.000  H 
  H573     1.0000 0.64386  0.13686  0.84620  Biso   1.000  H 
  H574     1.0000 0.39355  0.36167  0.57696  Biso   1.000  H 
  H575     1.0000 0.42054  0.43983  0.56885  Biso   1.000  H 
  H576     1.0000 0.47481  0.37436  0.58970  Biso   1.000  H 
