data_image0
_cell_length_a       26.896
_cell_length_b       26.896
_cell_length_c       26.896
_cell_angle_alpha    90
_cell_angle_beta     90
_cell_angle_gamma    90

_symmetry_space_group_name_H-M    "P 1"
_symmetry_int_tables_number       1

loop_
  _symmetry_equiv_pos_as_xyz
  'x, y, z'

loop_
  _atom_site_label
  _atom_site_occupancy
  _atom_site_fract_x
  _atom_site_fract_y
  _atom_site_fract_z
  _atom_site_thermal_displace_type
  _atom_site_B_iso_or_equiv
  _atom_site_type_symbol
  B1       1.0000 0.09204  0.00000  0.00000  Biso   1.000  B 
  B2       1.0000 0.90796  0.00000  0.00000  Biso   1.000  B 
  B3       1.0000 0.00000  0.09204  0.00000  Biso   1.000  B 
  B4       1.0000 0.00000  0.90796  0.00000  Biso   1.000  B 
  B5       1.0000 0.00000  0.00000  0.09204  Biso   1.000  B 
  B6       1.0000 0.00000  0.00000  0.90796  Biso   1.000  B 
  B7       1.0000 0.09204  0.50000  0.50000  Biso   1.000  B 
  B8       1.0000 0.90796  0.50000  0.50000  Biso   1.000  B 
  B9       1.0000 0.00000  0.59204  0.50000  Biso   1.000  B 
  B10      1.0000 0.00000  0.40796  0.50000  Biso   1.000  B 
  B11      1.0000 0.00000  0.50000  0.59204  Biso   1.000  B 
  B12      1.0000 0.00000  0.50000  0.40796  Biso   1.000  B 
  B13      1.0000 0.59204  0.00000  0.50000  Biso   1.000  B 
  B14      1.0000 0.40796  0.00000  0.50000  Biso   1.000  B 
  B15      1.0000 0.50000  0.09204  0.50000  Biso   1.000  B 
  B16      1.0000 0.50000  0.90796  0.50000  Biso   1.000  B 
  B17      1.0000 0.50000  0.00000  0.59204  Biso   1.000  B 
  B18      1.0000 0.50000  0.00000  0.40796  Biso   1.000  B 
  B19      1.0000 0.59204  0.50000  0.00000  Biso   1.000  B 
  B20      1.0000 0.40796  0.50000  0.00000  Biso   1.000  B 
  B21      1.0000 0.50000  0.59204  0.00000  Biso   1.000  B 
  B22      1.0000 0.50000  0.40796  0.00000  Biso   1.000  B 
  B23      1.0000 0.50000  0.50000  0.09204  Biso   1.000  B 
  B24      1.0000 0.50000  0.50000  0.90796  Biso   1.000  B 
  B25      1.0000 0.04540  0.04540  0.04540  Biso   1.000  B 
  B26      1.0000 0.95460  0.95460  0.04540  Biso   1.000  B 
  B27      1.0000 0.95460  0.04540  0.95460  Biso   1.000  B 
  B28      1.0000 0.04540  0.95460  0.95460  Biso   1.000  B 
  B29      1.0000 0.04540  0.04540  0.95460  Biso   1.000  B 
  B30      1.0000 0.95460  0.95460  0.95460  Biso   1.000  B 
  B31      1.0000 0.04540  0.95460  0.04540  Biso   1.000  B 
  B32      1.0000 0.95460  0.04540  0.04540  Biso   1.000  B 
  B33      1.0000 0.04540  0.54540  0.54540  Biso   1.000  B 
  B34      1.0000 0.95460  0.45460  0.54540  Biso   1.000  B 
  B35      1.0000 0.95460  0.54540  0.45460  Biso   1.000  B 
  B36      1.0000 0.04540  0.45460  0.45460  Biso   1.000  B 
  B37      1.0000 0.04540  0.54540  0.45460  Biso   1.000  B 
  B38      1.0000 0.95460  0.45460  0.45460  Biso   1.000  B 
  B39      1.0000 0.04540  0.45460  0.54540  Biso   1.000  B 
  B40      1.0000 0.95460  0.54540  0.54540  Biso   1.000  B 
  B41      1.0000 0.54540  0.04540  0.54540  Biso   1.000  B 
  B42      1.0000 0.45460  0.95460  0.54540  Biso   1.000  B 
  B43      1.0000 0.45460  0.04540  0.45460  Biso   1.000  B 
  B44      1.0000 0.54540  0.95460  0.45460  Biso   1.000  B 
  B45      1.0000 0.54540  0.04540  0.45460  Biso   1.000  B 
  B46      1.0000 0.45460  0.95460  0.45460  Biso   1.000  B 
  B47      1.0000 0.54540  0.95460  0.54540  Biso   1.000  B 
  B48      1.0000 0.45460  0.04540  0.54540  Biso   1.000  B 
  B49      1.0000 0.54540  0.54540  0.04540  Biso   1.000  B 
  B50      1.0000 0.45460  0.45460  0.04540  Biso   1.000  B 
  B51      1.0000 0.45460  0.54540  0.95460  Biso   1.000  B 
  B52      1.0000 0.54540  0.45460  0.95460  Biso   1.000  B 
  B53      1.0000 0.54540  0.54540  0.95460  Biso   1.000  B 
  B54      1.0000 0.45460  0.45460  0.95460  Biso   1.000  B 
  B55      1.0000 0.54540  0.45460  0.04540  Biso   1.000  B 
  B56      1.0000 0.45460  0.54540  0.04540  Biso   1.000  B 
  B57      1.0000 0.13260  0.00000  0.07190  Biso   1.000  B 
  B58      1.0000 0.11720  0.00000  0.11720  Biso   1.000  B 
  B59      1.0000 0.07190  0.00000  0.13260  Biso   1.000  B 
  B60      1.0000 0.15650  0.00000  0.15650  Biso   1.000  B 
  B61      1.0000 0.20580  0.00000  0.14470  Biso   1.000  B 
  B62      1.0000 0.14470  0.00000  0.20580  Biso   1.000  B 
  B63      1.0000 0.24200  0.00000  0.17950  Biso   1.000  B 
  B64      1.0000 0.21490  0.00000  0.11140  Biso   1.000  B 
  B65      1.0000 0.17950  0.00000  0.24200  Biso   1.000  B 
  O1       1.0000 0.09237  0.99537  0.22046  Biso   1.000  O 
  B66      1.0000 0.23070  0.00000  0.23070  Biso   1.000  B 
  B67      1.0000 0.26930  0.00000  0.26930  Biso   1.000  B 
  B68      1.0000 0.27510  0.00000  0.16950  Biso   1.000  B 
  B69      1.0000 0.32050  0.00000  0.25800  Biso   1.000  B 
  B70      1.0000 0.16950  0.00000  0.27510  Biso   1.000  B 
  B71      1.0000 0.25800  0.00000  0.32050  Biso   1.000  B 
  B72      1.0000 0.35530  0.00000  0.29420  Biso   1.000  B 
  B73      1.0000 0.33050  0.00000  0.22490  Biso   1.000  B 
  B74      1.0000 0.29420  0.00000  0.35530  Biso   1.000  B 
  B75      1.0000 0.22490  0.00000  0.33050  Biso   1.000  B 
  B76      1.0000 0.34350  0.00000  0.34350  Biso   1.000  B 
  B77      1.0000 0.38280  0.00000  0.38280  Biso   1.000  B 
  O2       1.0000 0.40771  0.99826  0.27769  Biso   1.000  O 
  B78      1.0000 0.28510  0.00000  0.38860  Biso   1.000  B 
  B79      1.0000 0.42810  0.00000  0.36740  Biso   1.000  B 
  B80      1.0000 0.36740  0.00000  0.42810  Biso   1.000  B 
  C1       1.0000 0.41505  0.96086  0.24086  Biso   1.000  C 
  C2       1.0000 0.07860  0.02514  0.26098  Biso   1.000  C 
  C3       1.0000 0.38823  0.91112  0.25325  Biso   1.000  C 
  H1       1.0000 0.45675  0.95560  0.23980  Biso   1.000  H 
  H2       1.0000 0.40489  0.97712  0.20429  Biso   1.000  H 
  H3       1.0000 0.40982  0.89022  0.28119  Biso   1.000  H 
  C4       1.0000 0.38050  0.88282  0.20402  Biso   1.000  C 
  H4       1.0000 0.34975  0.91483  0.27020  Biso   1.000  H 
  C5       1.0000 0.34515  0.83734  0.21023  Biso   1.000  C 
  H5       1.0000 0.41621  0.87059  0.18744  Biso   1.000  H 
  H6       1.0000 0.36229  0.90982  0.17583  Biso   1.000  H 
  C6       1.0000 0.07295  0.99346  0.30864  Biso   1.000  C 
  H7       1.0000 0.04044  0.03745  0.25310  Biso   1.000  H 
  H8       1.0000 0.10219  0.05882  0.26797  Biso   1.000  H 
  C7       1.0000 0.05743  0.93773  0.30729  Biso   1.000  C 
  H9       1.0000 0.04848  0.01251  0.33331  Biso   1.000  H 
  H10      1.0000 0.10826  0.99409  0.32618  Biso   1.000  H 
  H11      1.0000 0.02183  0.93411  0.28674  Biso   1.000  H 
  C8       1.0000 0.05012  0.91964  0.36040  Biso   1.000  C 
  H12      1.0000 0.08595  0.91313  0.28849  Biso   1.000  H 
  H13      1.0000 0.08880  0.90833  0.37335  Biso   1.000  H 
  H14      1.0000 0.02390  0.88808  0.36111  Biso   1.000  H 
  H15      1.0000 0.03638  0.94777  0.38786  Biso   1.000  H 
  H16      1.0000 0.36200  0.80473  0.22590  Biso   1.000  H 
  H17      1.0000 0.33072  0.82417  0.17517  Biso   1.000  H 
  H18      1.0000 0.31535  0.85094  0.23530  Biso   1.000  H 
  B81      1.0000 0.86740  0.00000  0.07190  Biso   1.000  B 
  B82      1.0000 0.88280  0.00000  0.11720  Biso   1.000  B 
  B83      1.0000 0.92810  0.00000  0.13260  Biso   1.000  B 
  B84      1.0000 0.84350  0.00000  0.15650  Biso   1.000  B 
  B85      1.0000 0.79420  0.00000  0.14470  Biso   1.000  B 
  B86      1.0000 0.85530  0.00000  0.20580  Biso   1.000  B 
  B87      1.0000 0.75800  0.00000  0.17950  Biso   1.000  B 
  B88      1.0000 0.78510  0.00000  0.11140  Biso   1.000  B 
  B89      1.0000 0.82050  0.00000  0.24200  Biso   1.000  B 
  O3       1.0000 0.90763  0.00463  0.22046  Biso   1.000  O 
  B90      1.0000 0.76930  0.00000  0.23070  Biso   1.000  B 
  B91      1.0000 0.73070  0.00000  0.26930  Biso   1.000  B 
  B92      1.0000 0.72490  0.00000  0.16950  Biso   1.000  B 
  B93      1.0000 0.67950  0.00000  0.25800  Biso   1.000  B 
  B94      1.0000 0.83050  0.00000  0.27510  Biso   1.000  B 
  B95      1.0000 0.74200  0.00000  0.32050  Biso   1.000  B 
  B96      1.0000 0.64470  0.00000  0.29420  Biso   1.000  B 
  B97      1.0000 0.66950  0.00000  0.22490  Biso   1.000  B 
  B98      1.0000 0.70580  0.00000  0.35530  Biso   1.000  B 
  B99      1.0000 0.77510  0.00000  0.33050  Biso   1.000  B 
  B100     1.0000 0.65650  0.00000  0.34350  Biso   1.000  B 
  B101     1.0000 0.61720  0.00000  0.38280  Biso   1.000  B 
  O4       1.0000 0.59229  0.00174  0.27769  Biso   1.000  O 
  B102     1.0000 0.71490  0.00000  0.38860  Biso   1.000  B 
  B103     1.0000 0.57190  0.00000  0.36740  Biso   1.000  B 
  B104     1.0000 0.63260  0.00000  0.42810  Biso   1.000  B 
  C9       1.0000 0.58495  0.03914  0.24086  Biso   1.000  C 
  C10      1.0000 0.92140  0.97486  0.26098  Biso   1.000  C 
  C11      1.0000 0.61177  0.08887  0.25325  Biso   1.000  C 
  H19      1.0000 0.54325  0.04440  0.23980  Biso   1.000  H 
  H20      1.0000 0.59511  0.02288  0.20429  Biso   1.000  H 
  H21      1.0000 0.59018  0.10978  0.28119  Biso   1.000  H 
  C12      1.0000 0.61950  0.11719  0.20402  Biso   1.000  C 
  H22      1.0000 0.65025  0.08517  0.27020  Biso   1.000  H 
  C13      1.0000 0.65485  0.16266  0.21023  Biso   1.000  C 
  H23      1.0000 0.58379  0.12941  0.18744  Biso   1.000  H 
  H24      1.0000 0.63771  0.09019  0.17583  Biso   1.000  H 
  C14      1.0000 0.92704  0.00654  0.30864  Biso   1.000  C 
  H25      1.0000 0.95956  0.96254  0.25310  Biso   1.000  H 
  H26      1.0000 0.89781  0.94118  0.26797  Biso   1.000  H 
  C15      1.0000 0.94258  0.06227  0.30729  Biso   1.000  C 
  H27      1.0000 0.95152  0.98749  0.33331  Biso   1.000  H 
  H28      1.0000 0.89174  0.00591  0.32618  Biso   1.000  H 
  H29      1.0000 0.97817  0.06589  0.28674  Biso   1.000  H 
  C16      1.0000 0.94988  0.08036  0.36040  Biso   1.000  C 
  H30      1.0000 0.91404  0.08687  0.28850  Biso   1.000  H 
  H31      1.0000 0.91120  0.09167  0.37335  Biso   1.000  H 
  H32      1.0000 0.97610  0.11192  0.36111  Biso   1.000  H 
  H33      1.0000 0.96362  0.05223  0.38786  Biso   1.000  H 
  H34      1.0000 0.63801  0.19527  0.22590  Biso   1.000  H 
  H35      1.0000 0.66927  0.17583  0.17517  Biso   1.000  H 
  H36      1.0000 0.68465  0.14906  0.23530  Biso   1.000  H 
  B105     1.0000 0.86740  0.00000  0.92810  Biso   1.000  B 
  B106     1.0000 0.88280  0.00000  0.88280  Biso   1.000  B 
  B107     1.0000 0.92810  0.00000  0.86740  Biso   1.000  B 
  B108     1.0000 0.84350  0.00000  0.84350  Biso   1.000  B 
  B109     1.0000 0.79420  0.00000  0.85530  Biso   1.000  B 
  B110     1.0000 0.85530  0.00000  0.79420  Biso   1.000  B 
  B111     1.0000 0.75800  0.00000  0.82050  Biso   1.000  B 
  B112     1.0000 0.78510  0.00000  0.88860  Biso   1.000  B 
  B113     1.0000 0.82050  0.00000  0.75800  Biso   1.000  B 
  O5       1.0000 0.90763  0.99537  0.77954  Biso   1.000  O 
  B114     1.0000 0.76930  0.00000  0.76930  Biso   1.000  B 
  B115     1.0000 0.73070  0.00000  0.73070  Biso   1.000  B 
  B116     1.0000 0.72490  0.00000  0.83050  Biso   1.000  B 
  B117     1.0000 0.67950  0.00000  0.74200  Biso   1.000  B 
  B118     1.0000 0.83050  0.00000  0.72490  Biso   1.000  B 
  B119     1.0000 0.74200  0.00000  0.67950  Biso   1.000  B 
  B120     1.0000 0.64470  0.00000  0.70580  Biso   1.000  B 
  B121     1.0000 0.66950  0.00000  0.77510  Biso   1.000  B 
  B122     1.0000 0.70580  0.00000  0.64470  Biso   1.000  B 
  B123     1.0000 0.77510  0.00000  0.66950  Biso   1.000  B 
  B124     1.0000 0.65650  0.00000  0.65650  Biso   1.000  B 
  B125     1.0000 0.61720  0.00000  0.61720  Biso   1.000  B 
  O6       1.0000 0.59229  0.99826  0.72231  Biso   1.000  O 
  B126     1.0000 0.71490  0.00000  0.61140  Biso   1.000  B 
  B127     1.0000 0.57190  0.00000  0.63260  Biso   1.000  B 
  B128     1.0000 0.63260  0.00000  0.57190  Biso   1.000  B 
  C17      1.0000 0.58495  0.96086  0.75914  Biso   1.000  C 
  C18      1.0000 0.92140  0.02514  0.73902  Biso   1.000  C 
  C19      1.0000 0.61177  0.91112  0.74675  Biso   1.000  C 
  H37      1.0000 0.54325  0.95560  0.76020  Biso   1.000  H 
  H38      1.0000 0.59511  0.97712  0.79571  Biso   1.000  H 
  H39      1.0000 0.59018  0.89022  0.71881  Biso   1.000  H 
  C20      1.0000 0.61950  0.88282  0.79598  Biso   1.000  C 
  H40      1.0000 0.65025  0.91483  0.72980  Biso   1.000  H 
  C21      1.0000 0.65485  0.83734  0.78978  Biso   1.000  C 
  H41      1.0000 0.58379  0.87059  0.81256  Biso   1.000  H 
  H42      1.0000 0.63771  0.90982  0.82417  Biso   1.000  H 
  C22      1.0000 0.92704  0.99346  0.69136  Biso   1.000  C 
  H43      1.0000 0.95956  0.03745  0.74690  Biso   1.000  H 
  H44      1.0000 0.89781  0.05882  0.73203  Biso   1.000  H 
  C23      1.0000 0.94258  0.93773  0.69271  Biso   1.000  C 
  H45      1.0000 0.95152  0.01251  0.66669  Biso   1.000  H 
  H46      1.0000 0.89174  0.99409  0.67382  Biso   1.000  H 
  H47      1.0000 0.97817  0.93411  0.71326  Biso   1.000  H 
  C24      1.0000 0.94988  0.91964  0.63960  Biso   1.000  C 
  H48      1.0000 0.91404  0.91313  0.71150  Biso   1.000  H 
  H49      1.0000 0.91120  0.90833  0.62665  Biso   1.000  H 
  H50      1.0000 0.97610  0.88808  0.63889  Biso   1.000  H 
  H51      1.0000 0.96362  0.94777  0.61214  Biso   1.000  H 
  H52      1.0000 0.63801  0.80473  0.77410  Biso   1.000  H 
  H53      1.0000 0.66928  0.82417  0.82483  Biso   1.000  H 
  H54      1.0000 0.68465  0.85094  0.76470  Biso   1.000  H 
  B129     1.0000 0.13260  0.00000  0.92810  Biso   1.000  B 
  B130     1.0000 0.11720  0.00000  0.88280  Biso   1.000  B 
  B131     1.0000 0.07190  0.00000  0.86740  Biso   1.000  B 
  B132     1.0000 0.15650  0.00000  0.84350  Biso   1.000  B 
  B133     1.0000 0.20580  0.00000  0.85530  Biso   1.000  B 
  B134     1.0000 0.14470  0.00000  0.79420  Biso   1.000  B 
  B135     1.0000 0.24200  0.00000  0.82050  Biso   1.000  B 
  B136     1.0000 0.21490  0.00000  0.88860  Biso   1.000  B 
  B137     1.0000 0.17950  0.00000  0.75800  Biso   1.000  B 
  O7       1.0000 0.09237  0.00463  0.77954  Biso   1.000  O 
  B138     1.0000 0.23070  0.00000  0.76930  Biso   1.000  B 
  B139     1.0000 0.26930  0.00000  0.73070  Biso   1.000  B 
  B140     1.0000 0.27510  0.00000  0.83050  Biso   1.000  B 
  B141     1.0000 0.32050  0.00000  0.74200  Biso   1.000  B 
  B142     1.0000 0.16950  0.00000  0.72490  Biso   1.000  B 
  B143     1.0000 0.25800  0.00000  0.67950  Biso   1.000  B 
  B144     1.0000 0.35530  0.00000  0.70580  Biso   1.000  B 
  B145     1.0000 0.33050  0.00000  0.77510  Biso   1.000  B 
  B146     1.0000 0.29420  0.00000  0.64470  Biso   1.000  B 
  B147     1.0000 0.22490  0.00000  0.66950  Biso   1.000  B 
  B148     1.0000 0.34350  0.00000  0.65650  Biso   1.000  B 
  B149     1.0000 0.38280  0.00000  0.61720  Biso   1.000  B 
  O8       1.0000 0.40771  0.00174  0.72231  Biso   1.000  O 
  B150     1.0000 0.28510  0.00000  0.61140  Biso   1.000  B 
  B151     1.0000 0.42810  0.00000  0.63260  Biso   1.000  B 
  B152     1.0000 0.36740  0.00000  0.57190  Biso   1.000  B 
  C25      1.0000 0.41505  0.03914  0.75914  Biso   1.000  C 
  C26      1.0000 0.07860  0.97486  0.73902  Biso   1.000  C 
  C27      1.0000 0.38823  0.08887  0.74675  Biso   1.000  C 
  H55      1.0000 0.45675  0.04440  0.76020  Biso   1.000  H 
  H56      1.0000 0.40489  0.02288  0.79571  Biso   1.000  H 
  H57      1.0000 0.40982  0.10978  0.71881  Biso   1.000  H 
  C28      1.0000 0.38050  0.11719  0.79598  Biso   1.000  C 
  H58      1.0000 0.34975  0.08517  0.72980  Biso   1.000  H 
  C29      1.0000 0.34515  0.16266  0.78978  Biso   1.000  C 
  H59      1.0000 0.41621  0.12941  0.81256  Biso   1.000  H 
  H60      1.0000 0.36229  0.09019  0.82417  Biso   1.000  H 
  C30      1.0000 0.07295  0.00654  0.69136  Biso   1.000  C 
  H61      1.0000 0.04044  0.96254  0.74690  Biso   1.000  H 
  H62      1.0000 0.10219  0.94118  0.73203  Biso   1.000  H 
  C31      1.0000 0.05743  0.06227  0.69271  Biso   1.000  C 
  H63      1.0000 0.04848  0.98749  0.66669  Biso   1.000  H 
  H64      1.0000 0.10826  0.00591  0.67382  Biso   1.000  H 
  H65      1.0000 0.02183  0.06589  0.71325  Biso   1.000  H 
  C32      1.0000 0.05012  0.08036  0.63960  Biso   1.000  C 
  H66      1.0000 0.08595  0.08687  0.71150  Biso   1.000  H 
  H67      1.0000 0.08880  0.09167  0.62665  Biso   1.000  H 
  H68      1.0000 0.02390  0.11192  0.63889  Biso   1.000  H 
  H69      1.0000 0.03638  0.05223  0.61214  Biso   1.000  H 
  H70      1.0000 0.36200  0.19527  0.77410  Biso   1.000  H 
  H71      1.0000 0.33072  0.17583  0.82483  Biso   1.000  H 
  H72      1.0000 0.31535  0.14906  0.76470  Biso   1.000  H 
  B153     1.0000 0.07190  0.13260  0.00000  Biso   1.000  B 
  B154     1.0000 0.11720  0.11720  0.00000  Biso   1.000  B 
  B155     1.0000 0.13260  0.07190  0.00000  Biso   1.000  B 
  B156     1.0000 0.15650  0.15650  0.00000  Biso   1.000  B 
  B157     1.0000 0.14470  0.20580  0.00000  Biso   1.000  B 
  B158     1.0000 0.20580  0.14470  0.00000  Biso   1.000  B 
  B159     1.0000 0.17950  0.24200  0.00000  Biso   1.000  B 
  B160     1.0000 0.11140  0.21490  0.00000  Biso   1.000  B 
  B161     1.0000 0.24200  0.17950  0.00000  Biso   1.000  B 
  O9       1.0000 0.22023  0.09336  0.99068  Biso   1.000  O 
  B162     1.0000 0.23070  0.23070  0.00000  Biso   1.000  B 
  B163     1.0000 0.26930  0.26930  0.00000  Biso   1.000  B 
  B164     1.0000 0.16950  0.27510  0.00000  Biso   1.000  B 
  B165     1.0000 0.25800  0.32050  0.00000  Biso   1.000  B 
  B166     1.0000 0.27510  0.16950  0.00000  Biso   1.000  B 
  B167     1.0000 0.32050  0.25800  0.00000  Biso   1.000  B 
  B168     1.0000 0.29420  0.35530  0.00000  Biso   1.000  B 
  B169     1.0000 0.22490  0.33050  0.00000  Biso   1.000  B 
  B170     1.0000 0.35530  0.29420  0.00000  Biso   1.000  B 
  B171     1.0000 0.33050  0.22490  0.00000  Biso   1.000  B 
  B172     1.0000 0.34350  0.34350  0.00000  Biso   1.000  B 
  B173     1.0000 0.38280  0.38280  0.00000  Biso   1.000  B 
  O10      1.0000 0.27950  0.40811  0.99361  Biso   1.000  O 
  B174     1.0000 0.38860  0.28510  0.00000  Biso   1.000  B 
  B175     1.0000 0.36740  0.42810  0.00000  Biso   1.000  B 
  B176     1.0000 0.42810  0.36740  0.00000  Biso   1.000  B 
  C33      1.0000 0.22968  0.41219  0.97452  Biso   1.000  C 
  C34      1.0000 0.25343  0.07511  0.02572  Biso   1.000  C 
  C35      1.0000 0.21528  0.45898  0.94641  Biso   1.000  C 
  H73      1.0000 0.20372  0.40787  0.00617  Biso   1.000  H 
  H74      1.0000 0.22145  0.38315  0.94556  Biso   1.000  H 
  H75      1.0000 0.23406  0.49102  0.96240  Biso   1.000  H 
  C36      1.0000 0.15867  0.46697  0.94424  Biso   1.000  C 
  H76      1.0000 0.22662  0.45344  0.90773  Biso   1.000  H 
  C37      1.0000 0.14883  0.51611  0.91539  Biso   1.000  C 
  H77      1.0000 0.13831  0.46849  0.98053  Biso   1.000  H 
  H78      1.0000 0.14455  0.43483  0.92285  Biso   1.000  H 
  C38      1.0000 0.30691  0.07293  0.00378  Biso   1.000  C 
  H79      1.0000 0.24319  0.03609  0.03090  Biso   1.000  H 
  H80      1.0000 0.25123  0.09406  0.06219  Biso   1.000  H 
  C39      1.0000 0.30955  0.06372  0.94735  Biso   1.000  C 
  H81      1.0000 0.32616  0.04351  0.02096  Biso   1.000  H 
  H82      1.0000 0.32735  0.10721  0.01234  Biso   1.000  H 
  H83      1.0000 0.28034  0.03632  0.93629  Biso   1.000  H 
  C40      1.0000 0.35792  0.03856  0.92803  Biso   1.000  C 
  H84      1.0000 0.30400  0.09929  0.92761  Biso   1.000  H 
  H85      1.0000 0.38436  0.02964  0.95911  Biso   1.000  H 
  H86      1.0000 0.37820  0.06617  0.90426  Biso   1.000  H 
  H87      1.0000 0.34902  0.00416  0.90678  Biso   1.000  H 
  H88      1.0000 0.10908  0.52736  0.91737  Biso   1.000  H 
  H89      1.0000 0.15747  0.50936  0.87558  Biso   1.000  H 
  H90      1.0000 0.17246  0.54697  0.92853  Biso   1.000  H 
  B177     1.0000 0.07190  0.86740  0.00000  Biso   1.000  B 
  B178     1.0000 0.11720  0.88280  0.00000  Biso   1.000  B 
  B179     1.0000 0.13260  0.92810  0.00000  Biso   1.000  B 
  B180     1.0000 0.15650  0.84350  0.00000  Biso   1.000  B 
  B181     1.0000 0.14470  0.79420  0.00000  Biso   1.000  B 
  B182     1.0000 0.20580  0.85530  0.00000  Biso   1.000  B 
  B183     1.0000 0.17950  0.75800  0.00000  Biso   1.000  B 
  B184     1.0000 0.11140  0.78510  0.00000  Biso   1.000  B 
  B185     1.0000 0.24200  0.82050  0.00000  Biso   1.000  B 
  O11      1.0000 0.22023  0.90664  0.00932  Biso   1.000  O 
  B186     1.0000 0.23070  0.76930  0.00000  Biso   1.000  B 
  B187     1.0000 0.26930  0.73070  0.00000  Biso   1.000  B 
  B188     1.0000 0.16950  0.72490  0.00000  Biso   1.000  B 
  B189     1.0000 0.25800  0.67950  0.00000  Biso   1.000  B 
  B190     1.0000 0.27510  0.83050  0.00000  Biso   1.000  B 
  B191     1.0000 0.32050  0.74200  0.00000  Biso   1.000  B 
  B192     1.0000 0.29420  0.64470  0.00000  Biso   1.000  B 
  B193     1.0000 0.22490  0.66950  0.00000  Biso   1.000  B 
  B194     1.0000 0.35530  0.70580  0.00000  Biso   1.000  B 
  B195     1.0000 0.33050  0.77510  0.00000  Biso   1.000  B 
  B196     1.0000 0.34350  0.65650  0.00000  Biso   1.000  B 
  B197     1.0000 0.38280  0.61720  0.00000  Biso   1.000  B 
  O12      1.0000 0.27950  0.59189  0.00639  Biso   1.000  O 
  B198     1.0000 0.38860  0.71490  0.00000  Biso   1.000  B 
  B199     1.0000 0.36740  0.57190  0.00000  Biso   1.000  B 
  B200     1.0000 0.42810  0.63260  0.00000  Biso   1.000  B 
  C41      1.0000 0.22968  0.58781  0.02548  Biso   1.000  C 
  C42      1.0000 0.25343  0.92489  0.97428  Biso   1.000  C 
  C43      1.0000 0.21528  0.54102  0.05359  Biso   1.000  C 
  H91      1.0000 0.20372  0.59213  0.99383  Biso   1.000  H 
  H92      1.0000 0.22145  0.61685  0.05444  Biso   1.000  H 
  H93      1.0000 0.23406  0.50898  0.03761  Biso   1.000  H 
  C44      1.0000 0.15867  0.53303  0.05576  Biso   1.000  C 
  H94      1.0000 0.22662  0.54656  0.09227  Biso   1.000  H 
  C45      1.0000 0.14883  0.48389  0.08461  Biso   1.000  C 
  H95      1.0000 0.13831  0.53151  0.01947  Biso   1.000  H 
  H96      1.0000 0.14455  0.56517  0.07715  Biso   1.000  H 
  C46      1.0000 0.30691  0.92707  0.99622  Biso   1.000  C 
  H97      1.0000 0.24319  0.96391  0.96910  Biso   1.000  H 
  H98      1.0000 0.25123  0.90594  0.93781  Biso   1.000  H 
  C47      1.0000 0.30955  0.93628  0.05265  Biso   1.000  C 
  H99      1.0000 0.32616  0.95650  0.97905  Biso   1.000  H 
  H100     1.0000 0.32735  0.89279  0.98766  Biso   1.000  H 
  H101     1.0000 0.28034  0.96368  0.06371  Biso   1.000  H 
  C48      1.0000 0.35792  0.96144  0.07197  Biso   1.000  C 
  H102     1.0000 0.30400  0.90071  0.07239  Biso   1.000  H 
  H103     1.0000 0.38436  0.97036  0.04089  Biso   1.000  H 
  H104     1.0000 0.37820  0.93383  0.09573  Biso   1.000  H 
  H105     1.0000 0.34902  0.99584  0.09322  Biso   1.000  H 
  H106     1.0000 0.10908  0.47264  0.08263  Biso   1.000  H 
  H107     1.0000 0.15747  0.49064  0.12442  Biso   1.000  H 
  H108     1.0000 0.17246  0.45303  0.07147  Biso   1.000  H 
  B201     1.0000 0.92810  0.86740  0.00000  Biso   1.000  B 
  B202     1.0000 0.88280  0.88280  0.00000  Biso   1.000  B 
  B203     1.0000 0.86740  0.92810  0.00000  Biso   1.000  B 
  B204     1.0000 0.84350  0.84350  0.00000  Biso   1.000  B 
  B205     1.0000 0.85530  0.79420  0.00000  Biso   1.000  B 
  B206     1.0000 0.79420  0.85530  0.00000  Biso   1.000  B 
  B207     1.0000 0.82050  0.75800  0.00000  Biso   1.000  B 
  B208     1.0000 0.88860  0.78510  0.00000  Biso   1.000  B 
  B209     1.0000 0.75800  0.82050  0.00000  Biso   1.000  B 
  O13      1.0000 0.77977  0.90664  0.99068  Biso   1.000  O 
  B210     1.0000 0.76930  0.76930  0.00000  Biso   1.000  B 
  B211     1.0000 0.73070  0.73070  0.00000  Biso   1.000  B 
  B212     1.0000 0.83050  0.72490  0.00000  Biso   1.000  B 
  B213     1.0000 0.74200  0.67950  0.00000  Biso   1.000  B 
  B214     1.0000 0.72490  0.83050  0.00000  Biso   1.000  B 
  B215     1.0000 0.67950  0.74200  0.00000  Biso   1.000  B 
  B216     1.0000 0.70580  0.64470  0.00000  Biso   1.000  B 
  B217     1.0000 0.77510  0.66950  0.00000  Biso   1.000  B 
  B218     1.0000 0.64470  0.70580  0.00000  Biso   1.000  B 
  B219     1.0000 0.66950  0.77510  0.00000  Biso   1.000  B 
  B220     1.0000 0.65650  0.65650  0.00000  Biso   1.000  B 
  B221     1.0000 0.61720  0.61720  0.00000  Biso   1.000  B 
  O14      1.0000 0.72050  0.59189  0.99361  Biso   1.000  O 
  B222     1.0000 0.61140  0.71490  0.00000  Biso   1.000  B 
  B223     1.0000 0.63260  0.57190  0.00000  Biso   1.000  B 
  B224     1.0000 0.57190  0.63260  0.00000  Biso   1.000  B 
  C49      1.0000 0.77032  0.58781  0.97452  Biso   1.000  C 
  C50      1.0000 0.74658  0.92489  0.02572  Biso   1.000  C 
  C51      1.0000 0.78473  0.54102  0.94641  Biso   1.000  C 
  H109     1.0000 0.79629  0.59213  0.00617  Biso   1.000  H 
  H110     1.0000 0.77855  0.61685  0.94556  Biso   1.000  H 
  H111     1.0000 0.76594  0.50898  0.96240  Biso   1.000  H 
  C52      1.0000 0.84133  0.53303  0.94424  Biso   1.000  C 
  H112     1.0000 0.77338  0.54656  0.90773  Biso   1.000  H 
  C53      1.0000 0.85117  0.48389  0.91539  Biso   1.000  C 
  H113     1.0000 0.86169  0.53151  0.98053  Biso   1.000  H 
  H114     1.0000 0.85545  0.56517  0.92285  Biso   1.000  H 
  C54      1.0000 0.69310  0.92707  0.00378  Biso   1.000  C 
  H115     1.0000 0.75682  0.96391  0.03090  Biso   1.000  H 
  H116     1.0000 0.74877  0.90594  0.06219  Biso   1.000  H 
  C55      1.0000 0.69045  0.93628  0.94735  Biso   1.000  C 
  H117     1.0000 0.67384  0.95650  0.02096  Biso   1.000  H 
  H118     1.0000 0.67265  0.89279  0.01234  Biso   1.000  H 
  H119     1.0000 0.71966  0.96368  0.93629  Biso   1.000  H 
  C56      1.0000 0.64208  0.96144  0.92803  Biso   1.000  C 
  H120     1.0000 0.69600  0.90071  0.92761  Biso   1.000  H 
  H121     1.0000 0.61564  0.97036  0.95911  Biso   1.000  H 
  H122     1.0000 0.62180  0.93383  0.90426  Biso   1.000  H 
  H123     1.0000 0.65098  0.99584  0.90678  Biso   1.000  H 
  H124     1.0000 0.89092  0.47264  0.91737  Biso   1.000  H 
  H125     1.0000 0.84253  0.49064  0.87558  Biso   1.000  H 
  H126     1.0000 0.82754  0.45303  0.92853  Biso   1.000  H 
  B225     1.0000 0.92810  0.13260  0.00000  Biso   1.000  B 
  B226     1.0000 0.88280  0.11720  0.00000  Biso   1.000  B 
  B227     1.0000 0.86740  0.07190  0.00000  Biso   1.000  B 
  B228     1.0000 0.84350  0.15650  0.00000  Biso   1.000  B 
  B229     1.0000 0.85530  0.20580  0.00000  Biso   1.000  B 
  B230     1.0000 0.79420  0.14470  0.00000  Biso   1.000  B 
  B231     1.0000 0.82050  0.24200  0.00000  Biso   1.000  B 
  B232     1.0000 0.88860  0.21490  0.00000  Biso   1.000  B 
  B233     1.0000 0.75800  0.17950  0.00000  Biso   1.000  B 
  O15      1.0000 0.77977  0.09336  0.00932  Biso   1.000  O 
  B234     1.0000 0.76930  0.23070  0.00000  Biso   1.000  B 
  B235     1.0000 0.73070  0.26930  0.00000  Biso   1.000  B 
  B236     1.0000 0.83050  0.27510  0.00000  Biso   1.000  B 
  B237     1.0000 0.74200  0.32050  0.00000  Biso   1.000  B 
  B238     1.0000 0.72490  0.16950  0.00000  Biso   1.000  B 
  B239     1.0000 0.67950  0.25800  0.00000  Biso   1.000  B 
  B240     1.0000 0.70580  0.35530  0.00000  Biso   1.000  B 
  B241     1.0000 0.77510  0.33050  0.00000  Biso   1.000  B 
  B242     1.0000 0.64470  0.29420  0.00000  Biso   1.000  B 
  B243     1.0000 0.66950  0.22490  0.00000  Biso   1.000  B 
  B244     1.0000 0.65650  0.34350  0.00000  Biso   1.000  B 
  B245     1.0000 0.61720  0.38280  0.00000  Biso   1.000  B 
  O16      1.0000 0.72050  0.40811  0.00639  Biso   1.000  O 
  B246     1.0000 0.61140  0.28510  0.00000  Biso   1.000  B 
  B247     1.0000 0.63260  0.42810  0.00000  Biso   1.000  B 
  B248     1.0000 0.57190  0.36740  0.00000  Biso   1.000  B 
  C57      1.0000 0.77032  0.41219  0.02548  Biso   1.000  C 
  C58      1.0000 0.74658  0.07511  0.97428  Biso   1.000  C 
  C59      1.0000 0.78473  0.45898  0.05359  Biso   1.000  C 
  H127     1.0000 0.79629  0.40787  0.99383  Biso   1.000  H 
  H128     1.0000 0.77855  0.38315  0.05444  Biso   1.000  H 
  H129     1.0000 0.76594  0.49102  0.03761  Biso   1.000  H 
  C60      1.0000 0.84133  0.46697  0.05576  Biso   1.000  C 
  H130     1.0000 0.77338  0.45344  0.09227  Biso   1.000  H 
  C61      1.0000 0.85117  0.51611  0.08461  Biso   1.000  C 
  H131     1.0000 0.86169  0.46849  0.01947  Biso   1.000  H 
  H132     1.0000 0.85545  0.43483  0.07715  Biso   1.000  H 
  C62      1.0000 0.69310  0.07293  0.99622  Biso   1.000  C 
  H133     1.0000 0.75682  0.03609  0.96910  Biso   1.000  H 
  H134     1.0000 0.74877  0.09406  0.93781  Biso   1.000  H 
  C63      1.0000 0.69045  0.06372  0.05265  Biso   1.000  C 
  H135     1.0000 0.67384  0.04351  0.97905  Biso   1.000  H 
  H136     1.0000 0.67265  0.10721  0.98766  Biso   1.000  H 
  H137     1.0000 0.71966  0.03632  0.06371  Biso   1.000  H 
  C64      1.0000 0.64208  0.03856  0.07197  Biso   1.000  C 
  H138     1.0000 0.69600  0.09929  0.07239  Biso   1.000  H 
  H139     1.0000 0.61564  0.02964  0.04089  Biso   1.000  H 
  H140     1.0000 0.62180  0.06617  0.09573  Biso   1.000  H 
  H141     1.0000 0.65098  0.00416  0.09322  Biso   1.000  H 
  H142     1.0000 0.89092  0.52736  0.08263  Biso   1.000  H 
  H143     1.0000 0.84253  0.50936  0.12442  Biso   1.000  H 
  H144     1.0000 0.82754  0.54697  0.07147  Biso   1.000  H 
  B249     1.0000 0.00000  0.07190  0.13260  Biso   1.000  B 
  B250     1.0000 0.00000  0.11720  0.11720  Biso   1.000  B 
  B251     1.0000 0.00000  0.13260  0.07190  Biso   1.000  B 
  B252     1.0000 0.00000  0.15650  0.15650  Biso   1.000  B 
  B253     1.0000 0.00000  0.14470  0.20580  Biso   1.000  B 
  B254     1.0000 0.00000  0.20580  0.14470  Biso   1.000  B 
  B255     1.0000 0.00000  0.17950  0.24200  Biso   1.000  B 
  B256     1.0000 0.00000  0.11140  0.21490  Biso   1.000  B 
  B257     1.0000 0.00000  0.24200  0.17950  Biso   1.000  B 
  O17      1.0000 0.98890  0.21931  0.09304  Biso   1.000  O 
  B258     1.0000 0.00000  0.23070  0.23070  Biso   1.000  B 
  B259     1.0000 0.00000  0.26930  0.26930  Biso   1.000  B 
  B260     1.0000 0.00000  0.16950  0.27510  Biso   1.000  B 
  B261     1.0000 0.00000  0.25800  0.32050  Biso   1.000  B 
  B262     1.0000 0.00000  0.27510  0.16950  Biso   1.000  B 
  B263     1.0000 0.00000  0.32050  0.25800  Biso   1.000  B 
  B264     1.0000 0.00000  0.29420  0.35530  Biso   1.000  B 
  B265     1.0000 0.00000  0.22490  0.33050  Biso   1.000  B 
  B266     1.0000 0.00000  0.35530  0.29420  Biso   1.000  B 
  B267     1.0000 0.00000  0.33050  0.22490  Biso   1.000  B 
  B268     1.0000 0.00000  0.34350  0.34350  Biso   1.000  B 
  B269     1.0000 0.00000  0.38280  0.38280  Biso   1.000  B 
  O18      1.0000 0.00209  0.27614  0.40674  Biso   1.000  O 
  B270     1.0000 0.00000  0.38860  0.28510  Biso   1.000  B 
  B271     1.0000 0.00000  0.36740  0.42810  Biso   1.000  B 
  B272     1.0000 0.00000  0.42810  0.36740  Biso   1.000  B 
  C65      1.0000 0.95986  0.24713  0.41997  Biso   1.000  C 
  C66      1.0000 0.02376  0.25311  0.07295  Biso   1.000  C 
  C67      1.0000 0.91058  0.25232  0.38914  Biso   1.000  C 
  H145     1.0000 0.95246  0.25630  0.46024  Biso   1.000  H 
  H146     1.0000 0.97272  0.20865  0.42166  Biso   1.000  H 
  H147     1.0000 0.88860  0.28198  0.40569  Biso   1.000  H 
  C68      1.0000 0.88118  0.20242  0.38608  Biso   1.000  C 
  H148     1.0000 0.91436  0.26265  0.34825  Biso   1.000  H 
  C69      1.0000 0.83673  0.20788  0.35038  Biso   1.000  C 
  H149     1.0000 0.86721  0.19105  0.42253  Biso   1.000  H 
  H150     1.0000 0.90760  0.17256  0.37097  Biso   1.000  H 
  C70      1.0000 0.00472  0.30832  0.08028  Biso   1.000  C 
  H151     1.0000 0.02810  0.24456  0.03291  Biso   1.000  H 
  H152     1.0000 0.06136  0.24949  0.09029  Biso   1.000  H 
  C71      1.0000 0.94832  0.31667  0.09441  Biso   1.000  C 
  H153     1.0000 0.01187  0.32809  0.04503  Biso   1.000  H 
  H154     1.0000 0.02892  0.32540  0.10922  Biso   1.000  H 
  H155     1.0000 0.93296  0.28298  0.11267  Biso   1.000  H 
  C72      1.0000 0.91550  0.32815  0.05037  Biso   1.000  C 
  H156     1.0000 0.94474  0.34839  0.12014  Biso   1.000  H 
  H157     1.0000 0.87591  0.33045  0.06299  Biso   1.000  H 
  H158     1.0000 0.91871  0.29845  0.02211  Biso   1.000  H 
  H159     1.0000 0.92655  0.36447  0.03408  Biso   1.000  H 
  H160     1.0000 0.81148  0.23774  0.36415  Biso   1.000  H 
  H161     1.0000 0.81214  0.17628  0.34819  Biso   1.000  H 
  H162     1.0000 0.84995  0.21267  0.31072  Biso   1.000  H 
  B273     1.0000 0.00000  0.07190  0.86740  Biso   1.000  B 
  B274     1.0000 0.00000  0.11720  0.88280  Biso   1.000  B 
  B275     1.0000 0.00000  0.13260  0.92810  Biso   1.000  B 
  B276     1.0000 0.00000  0.15650  0.84350  Biso   1.000  B 
  B277     1.0000 0.00000  0.14470  0.79420  Biso   1.000  B 
  B278     1.0000 0.00000  0.20580  0.85530  Biso   1.000  B 
  B279     1.0000 0.00000  0.17950  0.75800  Biso   1.000  B 
  B280     1.0000 0.00000  0.11140  0.78510  Biso   1.000  B 
  B281     1.0000 0.00000  0.24200  0.82050  Biso   1.000  B 
  O19      1.0000 0.01110  0.21931  0.90696  Biso   1.000  O 
  B282     1.0000 0.00000  0.23070  0.76930  Biso   1.000  B 
  B283     1.0000 0.00000  0.26930  0.73070  Biso   1.000  B 
  B284     1.0000 0.00000  0.16950  0.72490  Biso   1.000  B 
  B285     1.0000 0.00000  0.25800  0.67950  Biso   1.000  B 
  B286     1.0000 0.00000  0.27510  0.83050  Biso   1.000  B 
  B287     1.0000 0.00000  0.32050  0.74200  Biso   1.000  B 
  B288     1.0000 0.00000  0.29420  0.64470  Biso   1.000  B 
  B289     1.0000 0.00000  0.22490  0.66950  Biso   1.000  B 
  B290     1.0000 0.00000  0.35530  0.70580  Biso   1.000  B 
  B291     1.0000 0.00000  0.33050  0.77510  Biso   1.000  B 
  B292     1.0000 0.00000  0.34350  0.65650  Biso   1.000  B 
  B293     1.0000 0.00000  0.38280  0.61720  Biso   1.000  B 
  O20      1.0000 0.99791  0.27614  0.59326  Biso   1.000  O 
  B294     1.0000 0.00000  0.38860  0.71490  Biso   1.000  B 
  B295     1.0000 0.00000  0.36740  0.57190  Biso   1.000  B 
  B296     1.0000 0.00000  0.42810  0.63260  Biso   1.000  B 
  C73      1.0000 0.04014  0.24713  0.58003  Biso   1.000  C 
  C74      1.0000 0.97624  0.25311  0.92706  Biso   1.000  C 
  C75      1.0000 0.08942  0.25232  0.61086  Biso   1.000  C 
  H163     1.0000 0.04754  0.25630  0.53976  Biso   1.000  H 
  H164     1.0000 0.02728  0.20865  0.57834  Biso   1.000  H 
  H165     1.0000 0.11140  0.28198  0.59431  Biso   1.000  H 
  C76      1.0000 0.11882  0.20242  0.61392  Biso   1.000  C 
  H166     1.0000 0.08564  0.26265  0.65174  Biso   1.000  H 
  C77      1.0000 0.16327  0.20788  0.64962  Biso   1.000  C 
  H167     1.0000 0.13279  0.19105  0.57747  Biso   1.000  H 
  H168     1.0000 0.09240  0.17256  0.62903  Biso   1.000  H 
  C78      1.0000 0.99528  0.30832  0.91972  Biso   1.000  C 
  H169     1.0000 0.97190  0.24456  0.96709  Biso   1.000  H 
  H170     1.0000 0.93865  0.24949  0.90971  Biso   1.000  H 
  C79      1.0000 0.05168  0.31667  0.90559  Biso   1.000  C 
  H171     1.0000 0.98813  0.32809  0.95497  Biso   1.000  H 
  H172     1.0000 0.97108  0.32540  0.89078  Biso   1.000  H 
  H173     1.0000 0.06705  0.28298  0.88733  Biso   1.000  H 
  C80      1.0000 0.08450  0.32815  0.94963  Biso   1.000  C 
  H174     1.0000 0.05526  0.34839  0.87986  Biso   1.000  H 
  H175     1.0000 0.12409  0.33045  0.93701  Biso   1.000  H 
  H176     1.0000 0.08130  0.29845  0.97789  Biso   1.000  H 
  H177     1.0000 0.07345  0.36447  0.96592  Biso   1.000  H 
  H178     1.0000 0.18852  0.23774  0.63585  Biso   1.000  H 
  H179     1.0000 0.18786  0.17628  0.65181  Biso   1.000  H 
  H180     1.0000 0.15005  0.21267  0.68928  Biso   1.000  H 
  B297     1.0000 0.00000  0.92810  0.86740  Biso   1.000  B 
  B298     1.0000 0.00000  0.88280  0.88280  Biso   1.000  B 
  B299     1.0000 0.00000  0.86740  0.92810  Biso   1.000  B 
  B300     1.0000 0.00000  0.84350  0.84350  Biso   1.000  B 
  B301     1.0000 0.00000  0.85530  0.79420  Biso   1.000  B 
  B302     1.0000 0.00000  0.79420  0.85530  Biso   1.000  B 
  B303     1.0000 0.00000  0.82050  0.75800  Biso   1.000  B 
  B304     1.0000 0.00000  0.88860  0.78510  Biso   1.000  B 
  B305     1.0000 0.00000  0.75800  0.82050  Biso   1.000  B 
  O21      1.0000 0.98890  0.78069  0.90696  Biso   1.000  O 
  B306     1.0000 0.00000  0.76930  0.76930  Biso   1.000  B 
  B307     1.0000 0.00000  0.73070  0.73070  Biso   1.000  B 
  B308     1.0000 0.00000  0.83050  0.72490  Biso   1.000  B 
  B309     1.0000 0.00000  0.74200  0.67950  Biso   1.000  B 
  B310     1.0000 0.00000  0.72490  0.83050  Biso   1.000  B 
  B311     1.0000 0.00000  0.67950  0.74200  Biso   1.000  B 
  B312     1.0000 0.00000  0.70580  0.64470  Biso   1.000  B 
  B313     1.0000 0.00000  0.77510  0.66950  Biso   1.000  B 
  B314     1.0000 0.00000  0.64470  0.70580  Biso   1.000  B 
  B315     1.0000 0.00000  0.66950  0.77510  Biso   1.000  B 
  B316     1.0000 0.00000  0.65650  0.65650  Biso   1.000  B 
  B317     1.0000 0.00000  0.61720  0.61720  Biso   1.000  B 
  O22      1.0000 0.00209  0.72386  0.59326  Biso   1.000  O 
  B318     1.0000 0.00000  0.61140  0.71490  Biso   1.000  B 
  B319     1.0000 0.00000  0.63260  0.57190  Biso   1.000  B 
  B320     1.0000 0.00000  0.57190  0.63260  Biso   1.000  B 
  C81      1.0000 0.95986  0.75287  0.58003  Biso   1.000  C 
  C82      1.0000 0.02376  0.74689  0.92706  Biso   1.000  C 
  C83      1.0000 0.91058  0.74768  0.61086  Biso   1.000  C 
  H181     1.0000 0.95246  0.74370  0.53976  Biso   1.000  H 
  H182     1.0000 0.97272  0.79135  0.57834  Biso   1.000  H 
  H183     1.0000 0.88860  0.71802  0.59431  Biso   1.000  H 
  C84      1.0000 0.88118  0.79758  0.61392  Biso   1.000  C 
  H184     1.0000 0.91436  0.73735  0.65174  Biso   1.000  H 
  C85      1.0000 0.83673  0.79212  0.64962  Biso   1.000  C 
  H185     1.0000 0.86721  0.80895  0.57747  Biso   1.000  H 
  H186     1.0000 0.90760  0.82744  0.62903  Biso   1.000  H 
  C86      1.0000 0.00472  0.69168  0.91972  Biso   1.000  C 
  H187     1.0000 0.02810  0.75544  0.96709  Biso   1.000  H 
  H188     1.0000 0.06136  0.75051  0.90971  Biso   1.000  H 
  C87      1.0000 0.94832  0.68333  0.90559  Biso   1.000  C 
  H189     1.0000 0.01187  0.67191  0.95497  Biso   1.000  H 
  H190     1.0000 0.02892  0.67460  0.89078  Biso   1.000  H 
  H191     1.0000 0.93295  0.71702  0.88733  Biso   1.000  H 
  C88      1.0000 0.91550  0.67185  0.94963  Biso   1.000  C 
  H192     1.0000 0.94474  0.65161  0.87986  Biso   1.000  H 
  H193     1.0000 0.87591  0.66955  0.93701  Biso   1.000  H 
  H194     1.0000 0.91871  0.70155  0.97789  Biso   1.000  H 
  H195     1.0000 0.92655  0.63553  0.96592  Biso   1.000  H 
  H196     1.0000 0.81148  0.76226  0.63585  Biso   1.000  H 
  H197     1.0000 0.81214  0.82372  0.65181  Biso   1.000  H 
  H198     1.0000 0.84995  0.78733  0.68928  Biso   1.000  H 
  B321     1.0000 0.00000  0.92810  0.13260  Biso   1.000  B 
  B322     1.0000 0.00000  0.88280  0.11720  Biso   1.000  B 
  B323     1.0000 0.00000  0.86740  0.07190  Biso   1.000  B 
  B324     1.0000 0.00000  0.84350  0.15650  Biso   1.000  B 
  B325     1.0000 0.00000  0.85530  0.20580  Biso   1.000  B 
  B326     1.0000 0.00000  0.79420  0.14470  Biso   1.000  B 
  B327     1.0000 0.00000  0.82050  0.24200  Biso   1.000  B 
  B328     1.0000 0.00000  0.88860  0.21490  Biso   1.000  B 
  B329     1.0000 0.00000  0.75800  0.17950  Biso   1.000  B 
  O23      1.0000 0.01110  0.78069  0.09304  Biso   1.000  O 
  B330     1.0000 0.00000  0.76930  0.23070  Biso   1.000  B 
  B331     1.0000 0.00000  0.73070  0.26930  Biso   1.000  B 
  B332     1.0000 0.00000  0.83050  0.27510  Biso   1.000  B 
  B333     1.0000 0.00000  0.74200  0.32050  Biso   1.000  B 
  B334     1.0000 0.00000  0.72490  0.16950  Biso   1.000  B 
  B335     1.0000 0.00000  0.67950  0.25800  Biso   1.000  B 
  B336     1.0000 0.00000  0.70580  0.35530  Biso   1.000  B 
  B337     1.0000 0.00000  0.77510  0.33050  Biso   1.000  B 
  B338     1.0000 0.00000  0.64470  0.29420  Biso   1.000  B 
  B339     1.0000 0.00000  0.66950  0.22490  Biso   1.000  B 
  B340     1.0000 0.00000  0.65650  0.34350  Biso   1.000  B 
  B341     1.0000 0.00000  0.61720  0.38280  Biso   1.000  B 
  O24      1.0000 0.99791  0.72386  0.40674  Biso   1.000  O 
  B342     1.0000 0.00000  0.61140  0.28510  Biso   1.000  B 
  B343     1.0000 0.00000  0.63260  0.42810  Biso   1.000  B 
  B344     1.0000 0.00000  0.57190  0.36740  Biso   1.000  B 
  C89      1.0000 0.04014  0.75287  0.41997  Biso   1.000  C 
  C90      1.0000 0.97624  0.74689  0.07295  Biso   1.000  C 
  C91      1.0000 0.08942  0.74768  0.38914  Biso   1.000  C 
  H199     1.0000 0.04754  0.74370  0.46024  Biso   1.000  H 
  H200     1.0000 0.02728  0.79135  0.42166  Biso   1.000  H 
  H201     1.0000 0.11140  0.71802  0.40569  Biso   1.000  H 
  C92      1.0000 0.11882  0.79758  0.38608  Biso   1.000  C 
  H202     1.0000 0.08564  0.73735  0.34825  Biso   1.000  H 
  C93      1.0000 0.16327  0.79212  0.35038  Biso   1.000  C 
  H203     1.0000 0.13279  0.80895  0.42253  Biso   1.000  H 
  H204     1.0000 0.09240  0.82744  0.37097  Biso   1.000  H 
  C94      1.0000 0.99528  0.69168  0.08028  Biso   1.000  C 
  H205     1.0000 0.97190  0.75544  0.03291  Biso   1.000  H 
  H206     1.0000 0.93865  0.75051  0.09029  Biso   1.000  H 
  C95      1.0000 0.05168  0.68333  0.09441  Biso   1.000  C 
  H207     1.0000 0.98813  0.67191  0.04503  Biso   1.000  H 
  H208     1.0000 0.97108  0.67460  0.10922  Biso   1.000  H 
  H209     1.0000 0.06705  0.71702  0.11267  Biso   1.000  H 
  C96      1.0000 0.08450  0.67185  0.05037  Biso   1.000  C 
  H210     1.0000 0.05526  0.65161  0.12014  Biso   1.000  H 
  H211     1.0000 0.12409  0.66955  0.06299  Biso   1.000  H 
  H212     1.0000 0.08130  0.70155  0.02211  Biso   1.000  H 
  H213     1.0000 0.07345  0.63553  0.03408  Biso   1.000  H 
  H214     1.0000 0.18852  0.76226  0.36415  Biso   1.000  H 
  H215     1.0000 0.18786  0.82372  0.34819  Biso   1.000  H 
  H216     1.0000 0.15005  0.78733  0.31072  Biso   1.000  H 
  B345     1.0000 0.13260  0.50000  0.57190  Biso   1.000  B 
  B346     1.0000 0.11720  0.50000  0.61720  Biso   1.000  B 
  B347     1.0000 0.07190  0.50000  0.63260  Biso   1.000  B 
  B348     1.0000 0.15650  0.50000  0.65650  Biso   1.000  B 
  B349     1.0000 0.20580  0.50000  0.64470  Biso   1.000  B 
  B350     1.0000 0.14470  0.50000  0.70580  Biso   1.000  B 
  B351     1.0000 0.24200  0.50000  0.67950  Biso   1.000  B 
  B352     1.0000 0.21490  0.50000  0.61140  Biso   1.000  B 
  B353     1.0000 0.17950  0.50000  0.74200  Biso   1.000  B 
  O25      1.0000 0.09280  0.49016  0.72111  Biso   1.000  O 
  B354     1.0000 0.23070  0.50000  0.73070  Biso   1.000  B 
  B355     1.0000 0.26930  0.50000  0.76930  Biso   1.000  B 
  B356     1.0000 0.27510  0.50000  0.66950  Biso   1.000  B 
  B357     1.0000 0.32050  0.50000  0.75800  Biso   1.000  B 
  B358     1.0000 0.16950  0.50000  0.77510  Biso   1.000  B 
  B359     1.0000 0.25800  0.50000  0.82050  Biso   1.000  B 
  B360     1.0000 0.35530  0.50000  0.79420  Biso   1.000  B 
  B361     1.0000 0.33050  0.50000  0.72490  Biso   1.000  B 
  B362     1.0000 0.29420  0.50000  0.85530  Biso   1.000  B 
  B363     1.0000 0.22490  0.50000  0.83050  Biso   1.000  B 
  B364     1.0000 0.34350  0.50000  0.84350  Biso   1.000  B 
  B365     1.0000 0.38280  0.50000  0.88280  Biso   1.000  B 
  O26      1.0000 0.40809  0.49478  0.77929  Biso   1.000  O 
  B366     1.0000 0.28510  0.50000  0.88860  Biso   1.000  B 
  B367     1.0000 0.42810  0.50000  0.86740  Biso   1.000  B 
  B368     1.0000 0.36740  0.50000  0.92810  Biso   1.000  B 
  C97      1.0000 0.40970  0.46827  0.73373  Biso   1.000  C 
  C98      1.0000 0.07249  0.52961  0.74927  Biso   1.000  C 
  C99      1.0000 0.45858  0.44513  0.71817  Biso   1.000  C 
  H217     1.0000 0.40151  0.49455  0.70325  Biso   1.000  H 
  H218     1.0000 0.38306  0.43590  0.73247  Biso   1.000  H 
  H219     1.0000 0.48903  0.46208  0.73982  Biso   1.000  H 
  C100     1.0000 0.46759  0.44638  0.66179  Biso   1.000  C 
  H220     1.0000 0.45441  0.40537  0.72650  Biso   1.000  H 
  C101     1.0000 0.51925  0.42304  0.65304  Biso   1.000  C 
  H221     1.0000 0.46621  0.48317  0.64470  Biso   1.000  H 
  H222     1.0000 0.43822  0.42384  0.64407  Biso   1.000  H 
  C102     1.0000 0.07001  0.51724  0.80471  Biso   1.000  C 
  H223     1.0000 0.03386  0.53508  0.73530  Biso   1.000  H 
  H224     1.0000 0.09294  0.56600  0.74469  Biso   1.000  H 
  C103     1.0000 0.06111  0.46111  0.81721  Biso   1.000  C 
  H225     1.0000 0.04164  0.54008  0.82294  Biso   1.000  H 
  H226     1.0000 0.10604  0.52971  0.82016  Biso   1.000  H 
  H227     1.0000 0.03149  0.44503  0.79369  Biso   1.000  H 
  C104     1.0000 0.04831  0.45338  0.87130  Biso   1.000  C 
  H228     1.0000 0.09627  0.44116  0.80856  Biso   1.000  H 
  H229     1.0000 0.04304  0.48836  0.89319  Biso   1.000  H 
  H230     1.0000 0.07752  0.43213  0.88759  Biso   1.000  H 
  H231     1.0000 0.01438  0.42973  0.87544  Biso   1.000  H 
  H232     1.0000 0.52604  0.42687  0.61267  Biso   1.000  H 
  H233     1.0000 0.52117  0.38305  0.66271  Biso   1.000  H 
  H234     1.0000 0.54878  0.44239  0.67389  Biso   1.000  H 
  B369     1.0000 0.86740  0.50000  0.57190  Biso   1.000  B 
  B370     1.0000 0.88280  0.50000  0.61720  Biso   1.000  B 
  B371     1.0000 0.92810  0.50000  0.63260  Biso   1.000  B 
  B372     1.0000 0.84350  0.50000  0.65650  Biso   1.000  B 
  B373     1.0000 0.79420  0.50000  0.64470  Biso   1.000  B 
  B374     1.0000 0.85530  0.50000  0.70580  Biso   1.000  B 
  B375     1.0000 0.75800  0.50000  0.67950  Biso   1.000  B 
  B376     1.0000 0.78510  0.50000  0.61140  Biso   1.000  B 
  B377     1.0000 0.82050  0.50000  0.74200  Biso   1.000  B 
  O27      1.0000 0.90720  0.50984  0.72111  Biso   1.000  O 
  B378     1.0000 0.76930  0.50000  0.73070  Biso   1.000  B 
  B379     1.0000 0.73070  0.50000  0.76930  Biso   1.000  B 
  B380     1.0000 0.72490  0.50000  0.66950  Biso   1.000  B 
  B381     1.0000 0.67950  0.50000  0.75800  Biso   1.000  B 
  B382     1.0000 0.83050  0.50000  0.77510  Biso   1.000  B 
  B383     1.0000 0.74200  0.50000  0.82050  Biso   1.000  B 
  B384     1.0000 0.64470  0.50000  0.79420  Biso   1.000  B 
  B385     1.0000 0.66950  0.50000  0.72490  Biso   1.000  B 
  B386     1.0000 0.70580  0.50000  0.85530  Biso   1.000  B 
  B387     1.0000 0.77510  0.50000  0.83050  Biso   1.000  B 
  B388     1.0000 0.65650  0.50000  0.84350  Biso   1.000  B 
  B389     1.0000 0.61720  0.50000  0.88280  Biso   1.000  B 
  O28      1.0000 0.59191  0.50522  0.77929  Biso   1.000  O 
  B390     1.0000 0.71490  0.50000  0.88860  Biso   1.000  B 
  B391     1.0000 0.57190  0.50000  0.86740  Biso   1.000  B 
  B392     1.0000 0.63260  0.50000  0.92810  Biso   1.000  B 
  C105     1.0000 0.59030  0.53173  0.73373  Biso   1.000  C 
  C106     1.0000 0.92751  0.47039  0.74927  Biso   1.000  C 
  C107     1.0000 0.54142  0.55487  0.71817  Biso   1.000  C 
  H235     1.0000 0.59849  0.50545  0.70325  Biso   1.000  H 
  H236     1.0000 0.61694  0.56410  0.73247  Biso   1.000  H 
  H237     1.0000 0.51097  0.53792  0.73982  Biso   1.000  H 
  C108     1.0000 0.53241  0.55362  0.66179  Biso   1.000  C 
  H238     1.0000 0.54559  0.59463  0.72650  Biso   1.000  H 
  C109     1.0000 0.48075  0.57696  0.65304  Biso   1.000  C 
  H239     1.0000 0.53379  0.51683  0.64470  Biso   1.000  H 
  H240     1.0000 0.56178  0.57616  0.64407  Biso   1.000  H 
  C110     1.0000 0.92999  0.48276  0.80471  Biso   1.000  C 
  H241     1.0000 0.96614  0.46492  0.73530  Biso   1.000  H 
  H242     1.0000 0.90706  0.43400  0.74469  Biso   1.000  H 
  C111     1.0000 0.93889  0.53889  0.81721  Biso   1.000  C 
  H243     1.0000 0.95836  0.45992  0.82294  Biso   1.000  H 
  H244     1.0000 0.89396  0.47029  0.82016  Biso   1.000  H 
  H245     1.0000 0.96851  0.55497  0.79369  Biso   1.000  H 
  C112     1.0000 0.95170  0.54662  0.87130  Biso   1.000  C 
  H246     1.0000 0.90373  0.55884  0.80856  Biso   1.000  H 
  H247     1.0000 0.95696  0.51164  0.89319  Biso   1.000  H 
  H248     1.0000 0.92248  0.56787  0.88759  Biso   1.000  H 
  H249     1.0000 0.98562  0.57027  0.87544  Biso   1.000  H 
  H250     1.0000 0.47396  0.57313  0.61267  Biso   1.000  H 
  H251     1.0000 0.47883  0.61695  0.66271  Biso   1.000  H 
  H252     1.0000 0.45122  0.55761  0.67389  Biso   1.000  H 
  B393     1.0000 0.86740  0.50000  0.42810  Biso   1.000  B 
  B394     1.0000 0.88280  0.50000  0.38280  Biso   1.000  B 
  B395     1.0000 0.92810  0.50000  0.36740  Biso   1.000  B 
  B396     1.0000 0.84350  0.50000  0.34350  Biso   1.000  B 
  B397     1.0000 0.79420  0.50000  0.35530  Biso   1.000  B 
  B398     1.0000 0.85530  0.50000  0.29420  Biso   1.000  B 
  B399     1.0000 0.75800  0.50000  0.32050  Biso   1.000  B 
  B400     1.0000 0.78510  0.50000  0.38860  Biso   1.000  B 
  B401     1.0000 0.82050  0.50000  0.25800  Biso   1.000  B 
  O29      1.0000 0.90720  0.49016  0.27889  Biso   1.000  O 
  B402     1.0000 0.76930  0.50000  0.26930  Biso   1.000  B 
  B403     1.0000 0.73070  0.50000  0.23070  Biso   1.000  B 
  B404     1.0000 0.72490  0.50000  0.33050  Biso   1.000  B 
  B405     1.0000 0.67950  0.50000  0.24200  Biso   1.000  B 
  B406     1.0000 0.83050  0.50000  0.22490  Biso   1.000  B 
  B407     1.0000 0.74200  0.50000  0.17950  Biso   1.000  B 
  B408     1.0000 0.64470  0.50000  0.20580  Biso   1.000  B 
  B409     1.0000 0.66950  0.50000  0.27510  Biso   1.000  B 
  B410     1.0000 0.70580  0.50000  0.14470  Biso   1.000  B 
  B411     1.0000 0.77510  0.50000  0.16950  Biso   1.000  B 
  B412     1.0000 0.65650  0.50000  0.15650  Biso   1.000  B 
  B413     1.0000 0.61720  0.50000  0.11720  Biso   1.000  B 
  O30      1.0000 0.59191  0.49478  0.22071  Biso   1.000  O 
  B414     1.0000 0.71490  0.50000  0.11140  Biso   1.000  B 
  B415     1.0000 0.57190  0.50000  0.13260  Biso   1.000  B 
  B416     1.0000 0.63260  0.50000  0.07190  Biso   1.000  B 
  C113     1.0000 0.59030  0.46827  0.26627  Biso   1.000  C 
  C114     1.0000 0.92751  0.52961  0.25073  Biso   1.000  C 
  C115     1.0000 0.54142  0.44513  0.28183  Biso   1.000  C 
  H253     1.0000 0.59849  0.49455  0.29675  Biso   1.000  H 
  H254     1.0000 0.61694  0.43590  0.26753  Biso   1.000  H 
  H255     1.0000 0.51097  0.46208  0.26018  Biso   1.000  H 
  C116     1.0000 0.53241  0.44638  0.33821  Biso   1.000  C 
  H256     1.0000 0.54559  0.40537  0.27350  Biso   1.000  H 
  C117     1.0000 0.48075  0.42304  0.34696  Biso   1.000  C 
  H257     1.0000 0.53379  0.48317  0.35530  Biso   1.000  H 
  H258     1.0000 0.56178  0.42384  0.35593  Biso   1.000  H 
  C118     1.0000 0.92999  0.51724  0.19529  Biso   1.000  C 
  H259     1.0000 0.96614  0.53508  0.26470  Biso   1.000  H 
  H260     1.0000 0.90706  0.56600  0.25531  Biso   1.000  H 
  C119     1.0000 0.93889  0.46111  0.18279  Biso   1.000  C 
  H261     1.0000 0.95836  0.54008  0.17706  Biso   1.000  H 
  H262     1.0000 0.89396  0.52971  0.17984  Biso   1.000  H 
  H263     1.0000 0.96851  0.44503  0.20631  Biso   1.000  H 
  C120     1.0000 0.95170  0.45338  0.12870  Biso   1.000  C 
  H264     1.0000 0.90373  0.44116  0.19144  Biso   1.000  H 
  H265     1.0000 0.95696  0.48836  0.10681  Biso   1.000  H 
  H266     1.0000 0.92248  0.43213  0.11241  Biso   1.000  H 
  H267     1.0000 0.98562  0.42973  0.12456  Biso   1.000  H 
  H268     1.0000 0.47396  0.42687  0.38733  Biso   1.000  H 
  H269     1.0000 0.47883  0.38305  0.33729  Biso   1.000  H 
  H270     1.0000 0.45122  0.44239  0.32611  Biso   1.000  H 
  B417     1.0000 0.13260  0.50000  0.42810  Biso   1.000  B 
  B418     1.0000 0.11720  0.50000  0.38280  Biso   1.000  B 
  B419     1.0000 0.07190  0.50000  0.36740  Biso   1.000  B 
  B420     1.0000 0.15650  0.50000  0.34350  Biso   1.000  B 
  B421     1.0000 0.20580  0.50000  0.35530  Biso   1.000  B 
  B422     1.0000 0.14470  0.50000  0.29420  Biso   1.000  B 
  B423     1.0000 0.24200  0.50000  0.32050  Biso   1.000  B 
  B424     1.0000 0.21490  0.50000  0.38860  Biso   1.000  B 
  B425     1.0000 0.17950  0.50000  0.25800  Biso   1.000  B 
  O31      1.0000 0.09280  0.50984  0.27889  Biso   1.000  O 
  B426     1.0000 0.23070  0.50000  0.26930  Biso   1.000  B 
  B427     1.0000 0.26930  0.50000  0.23070  Biso   1.000  B 
  B428     1.0000 0.27510  0.50000  0.33050  Biso   1.000  B 
  B429     1.0000 0.32050  0.50000  0.24200  Biso   1.000  B 
  B430     1.0000 0.16950  0.50000  0.22490  Biso   1.000  B 
  B431     1.0000 0.25800  0.50000  0.17950  Biso   1.000  B 
  B432     1.0000 0.35530  0.50000  0.20580  Biso   1.000  B 
  B433     1.0000 0.33050  0.50000  0.27510  Biso   1.000  B 
  B434     1.0000 0.29420  0.50000  0.14470  Biso   1.000  B 
  B435     1.0000 0.22490  0.50000  0.16950  Biso   1.000  B 
  B436     1.0000 0.34350  0.50000  0.15650  Biso   1.000  B 
  B437     1.0000 0.38280  0.50000  0.11720  Biso   1.000  B 
  O32      1.0000 0.40809  0.50522  0.22071  Biso   1.000  O 
  B438     1.0000 0.28510  0.50000  0.11140  Biso   1.000  B 
  B439     1.0000 0.42810  0.50000  0.13260  Biso   1.000  B 
  B440     1.0000 0.36740  0.50000  0.07190  Biso   1.000  B 
  C121     1.0000 0.40970  0.53173  0.26627  Biso   1.000  C 
  C122     1.0000 0.07249  0.47039  0.25073  Biso   1.000  C 
  C123     1.0000 0.45858  0.55487  0.28183  Biso   1.000  C 
  H271     1.0000 0.40151  0.50545  0.29675  Biso   1.000  H 
  H272     1.0000 0.38306  0.56410  0.26753  Biso   1.000  H 
  H273     1.0000 0.48903  0.53792  0.26018  Biso   1.000  H 
  C124     1.0000 0.46759  0.55362  0.33821  Biso   1.000  C 
  H274     1.0000 0.45441  0.59463  0.27350  Biso   1.000  H 
  C125     1.0000 0.51925  0.57696  0.34696  Biso   1.000  C 
  H275     1.0000 0.46621  0.51683  0.35530  Biso   1.000  H 
  H276     1.0000 0.43822  0.57616  0.35593  Biso   1.000  H 
  C126     1.0000 0.07001  0.48276  0.19529  Biso   1.000  C 
  H277     1.0000 0.03386  0.46492  0.26470  Biso   1.000  H 
  H278     1.0000 0.09294  0.43400  0.25531  Biso   1.000  H 
  C127     1.0000 0.06111  0.53889  0.18279  Biso   1.000  C 
  H279     1.0000 0.04164  0.45992  0.17706  Biso   1.000  H 
  H280     1.0000 0.10604  0.47029  0.17984  Biso   1.000  H 
  H281     1.0000 0.03149  0.55497  0.20631  Biso   1.000  H 
  C128     1.0000 0.04831  0.54662  0.12870  Biso   1.000  C 
  H282     1.0000 0.09627  0.55884  0.19144  Biso   1.000  H 
  H283     1.0000 0.04304  0.51164  0.10681  Biso   1.000  H 
  H284     1.0000 0.07752  0.56787  0.11241  Biso   1.000  H 
  H285     1.0000 0.01438  0.57027  0.12456  Biso   1.000  H 
  H286     1.0000 0.52604  0.57313  0.38733  Biso   1.000  H 
  H287     1.0000 0.52117  0.61695  0.33729  Biso   1.000  H 
  H288     1.0000 0.54878  0.55761  0.32611  Biso   1.000  H 
  B441     1.0000 0.07190  0.63260  0.50000  Biso   1.000  B 
  B442     1.0000 0.11720  0.61720  0.50000  Biso   1.000  B 
  B443     1.0000 0.13260  0.57190  0.50000  Biso   1.000  B 
  B444     1.0000 0.15650  0.65650  0.50000  Biso   1.000  B 
  B445     1.0000 0.14470  0.70580  0.50000  Biso   1.000  B 
  B446     1.0000 0.20580  0.64470  0.50000  Biso   1.000  B 
  B447     1.0000 0.17950  0.74200  0.50000  Biso   1.000  B 
  B448     1.0000 0.11140  0.71490  0.50000  Biso   1.000  B 
  B449     1.0000 0.24200  0.67950  0.50000  Biso   1.000  B 
  O33      1.0000 0.21940  0.59322  0.48614  Biso   1.000  O 
  B450     1.0000 0.23070  0.73070  0.50000  Biso   1.000  B 
  B451     1.0000 0.26930  0.76930  0.50000  Biso   1.000  B 
  B452     1.0000 0.16950  0.77510  0.50000  Biso   1.000  B 
  B453     1.0000 0.25800  0.82050  0.50000  Biso   1.000  B 
  B454     1.0000 0.27510  0.66950  0.50000  Biso   1.000  B 
  B455     1.0000 0.32050  0.75800  0.50000  Biso   1.000  B 
  B456     1.0000 0.29420  0.85530  0.50000  Biso   1.000  B 
  B457     1.0000 0.22490  0.83050  0.50000  Biso   1.000  B 
  B458     1.0000 0.35530  0.79420  0.50000  Biso   1.000  B 
  B459     1.0000 0.33050  0.72490  0.50000  Biso   1.000  B 
  B460     1.0000 0.34350  0.84350  0.50000  Biso   1.000  B 
  B461     1.0000 0.38280  0.88280  0.50000  Biso   1.000  B 
  O34      1.0000 0.28028  0.90270  0.47762  Biso   1.000  O 
  B462     1.0000 0.38860  0.78510  0.50000  Biso   1.000  B 
  B463     1.0000 0.36740  0.92810  0.50000  Biso   1.000  B 
  B464     1.0000 0.42810  0.86740  0.50000  Biso   1.000  B 
  C129     1.0000 0.23013  0.92129  0.48613  Biso   1.000  C 
  C130     1.0000 0.25507  0.57227  0.51839  Biso   1.000  C 
  C131     1.0000 0.21963  0.96068  0.44683  Biso   1.000  C 
  H289     1.0000 0.22829  0.93323  0.52441  Biso   1.000  H 
  H290     1.0000 0.19877  0.89395  0.47855  Biso   1.000  H 
  H291     1.0000 0.24061  0.99152  0.45874  Biso   1.000  H 
  C132     1.0000 0.16314  0.97259  0.43924  Biso   1.000  C 
  H292     1.0000 0.23317  0.94459  0.41099  Biso   1.000  H 
  C133     1.0000 0.14912  0.02239  0.41136  Biso   1.000  C 
  H293     1.0000 0.14368  0.96793  0.47544  Biso   1.000  H 
  H294     1.0000 0.15071  0.94341  0.41365  Biso   1.000  H 
  C134     1.0000 0.30713  0.56903  0.49246  Biso   1.000  C 
  H295     1.0000 0.24164  0.53431  0.52722  Biso   1.000  H 
  H296     1.0000 0.25925  0.59306  0.55407  Biso   1.000  H 
  C135     1.0000 0.31013  0.56563  0.43463  Biso   1.000  C 
  H297     1.0000 0.32745  0.53777  0.50861  Biso   1.000  H 
  H298     1.0000 0.32809  0.60344  0.50348  Biso   1.000  H 
  H299     1.0000 0.27415  0.55158  0.42072  Biso   1.000  H 
  C136     1.0000 0.35116  0.53146  0.41256  Biso   1.000  C 
  H300     1.0000 0.31606  0.60358  0.41965  Biso   1.000  H 
  H301     1.0000 0.38819  0.53758  0.42953  Biso   1.000  H 
  H302     1.0000 0.35394  0.53955  0.37221  Biso   1.000  H 
  H303     1.0000 0.34030  0.49178  0.41664  Biso   1.000  H 
  H304     1.0000 0.10851  0.03065  0.41230  Biso   1.000  H 
  H305     1.0000 0.16444  0.02047  0.37425  Biso   1.000  H 
  H306     1.0000 0.16692  0.05267  0.43324  Biso   1.000  H 
  B465     1.0000 0.07190  0.36740  0.50000  Biso   1.000  B 
  B466     1.0000 0.11720  0.38280  0.50000  Biso   1.000  B 
  B467     1.0000 0.13260  0.42810  0.50000  Biso   1.000  B 
  B468     1.0000 0.15650  0.34350  0.50000  Biso   1.000  B 
  B469     1.0000 0.14470  0.29420  0.50000  Biso   1.000  B 
  B470     1.0000 0.20580  0.35530  0.50000  Biso   1.000  B 
  B471     1.0000 0.17950  0.25800  0.50000  Biso   1.000  B 
  B472     1.0000 0.11140  0.28510  0.50000  Biso   1.000  B 
  B473     1.0000 0.24200  0.32050  0.50000  Biso   1.000  B 
  O35      1.0000 0.21940  0.40678  0.51386  Biso   1.000  O 
  B474     1.0000 0.23070  0.26930  0.50000  Biso   1.000  B 
  B475     1.0000 0.26930  0.23070  0.50000  Biso   1.000  B 
  B476     1.0000 0.16950  0.22490  0.50000  Biso   1.000  B 
  B477     1.0000 0.25800  0.17950  0.50000  Biso   1.000  B 
  B478     1.0000 0.27510  0.33050  0.50000  Biso   1.000  B 
  B479     1.0000 0.32050  0.24200  0.50000  Biso   1.000  B 
  B480     1.0000 0.29420  0.14470  0.50000  Biso   1.000  B 
  B481     1.0000 0.22490  0.16950  0.50000  Biso   1.000  B 
  B482     1.0000 0.35530  0.20580  0.50000  Biso   1.000  B 
  B483     1.0000 0.33050  0.27510  0.50000  Biso   1.000  B 
  B484     1.0000 0.34350  0.15650  0.50000  Biso   1.000  B 
  B485     1.0000 0.38280  0.11720  0.50000  Biso   1.000  B 
  O36      1.0000 0.28028  0.09730  0.52238  Biso   1.000  O 
  B486     1.0000 0.38860  0.21490  0.50000  Biso   1.000  B 
  B487     1.0000 0.36740  0.07190  0.50000  Biso   1.000  B 
  B488     1.0000 0.42810  0.13260  0.50000  Biso   1.000  B 
  C137     1.0000 0.23013  0.07871  0.51387  Biso   1.000  C 
  C138     1.0000 0.25507  0.42773  0.48161  Biso   1.000  C 
  C139     1.0000 0.21963  0.03932  0.55317  Biso   1.000  C 
  H307     1.0000 0.22829  0.06677  0.47559  Biso   1.000  H 
  H308     1.0000 0.19877  0.10605  0.52145  Biso   1.000  H 
  H309     1.0000 0.24061  0.00848  0.54126  Biso   1.000  H 
  C140     1.0000 0.16314  0.02741  0.56076  Biso   1.000  C 
  H310     1.0000 0.23317  0.05541  0.58901  Biso   1.000  H 
  C141     1.0000 0.14912  0.97761  0.58864  Biso   1.000  C 
  H311     1.0000 0.14368  0.03207  0.52456  Biso   1.000  H 
  H312     1.0000 0.15071  0.05659  0.58635  Biso   1.000  H 
  C142     1.0000 0.30713  0.43097  0.50754  Biso   1.000  C 
  H313     1.0000 0.24164  0.46569  0.47278  Biso   1.000  H 
  H314     1.0000 0.25925  0.40694  0.44593  Biso   1.000  H 
  C143     1.0000 0.31013  0.43437  0.56537  Biso   1.000  C 
  H315     1.0000 0.32745  0.46223  0.49139  Biso   1.000  H 
  H316     1.0000 0.32809  0.39656  0.49652  Biso   1.000  H 
  H317     1.0000 0.27415  0.44842  0.57928  Biso   1.000  H 
  C144     1.0000 0.35116  0.46854  0.58744  Biso   1.000  C 
  H318     1.0000 0.31606  0.39642  0.58035  Biso   1.000  H 
  H319     1.0000 0.38819  0.46242  0.57047  Biso   1.000  H 
  H320     1.0000 0.35394  0.46045  0.62779  Biso   1.000  H 
  H321     1.0000 0.34030  0.50822  0.58336  Biso   1.000  H 
  H322     1.0000 0.10851  0.96935  0.58770  Biso   1.000  H 
  H323     1.0000 0.16444  0.97953  0.62575  Biso   1.000  H 
  H324     1.0000 0.16692  0.94733  0.56676  Biso   1.000  H 
  B489     1.0000 0.92810  0.36740  0.50000  Biso   1.000  B 
  B490     1.0000 0.88280  0.38280  0.50000  Biso   1.000  B 
  B491     1.0000 0.86740  0.42810  0.50000  Biso   1.000  B 
  B492     1.0000 0.84350  0.34350  0.50000  Biso   1.000  B 
  B493     1.0000 0.85530  0.29420  0.50000  Biso   1.000  B 
  B494     1.0000 0.79420  0.35530  0.50000  Biso   1.000  B 
  B495     1.0000 0.82050  0.25800  0.50000  Biso   1.000  B 
  B496     1.0000 0.88860  0.28510  0.50000  Biso   1.000  B 
  B497     1.0000 0.75800  0.32050  0.50000  Biso   1.000  B 
  O37      1.0000 0.78060  0.40678  0.48614  Biso   1.000  O 
  B498     1.0000 0.76930  0.26930  0.50000  Biso   1.000  B 
  B499     1.0000 0.73070  0.23070  0.50000  Biso   1.000  B 
  B500     1.0000 0.83050  0.22490  0.50000  Biso   1.000  B 
  B501     1.0000 0.74200  0.17950  0.50000  Biso   1.000  B 
  B502     1.0000 0.72490  0.33050  0.50000  Biso   1.000  B 
  B503     1.0000 0.67950  0.24200  0.50000  Biso   1.000  B 
  B504     1.0000 0.70580  0.14470  0.50000  Biso   1.000  B 
  B505     1.0000 0.77510  0.16950  0.50000  Biso   1.000  B 
  B506     1.0000 0.64470  0.20580  0.50000  Biso   1.000  B 
  B507     1.0000 0.66950  0.27510  0.50000  Biso   1.000  B 
  B508     1.0000 0.65650  0.15650  0.50000  Biso   1.000  B 
  B509     1.0000 0.61720  0.11720  0.50000  Biso   1.000  B 
  O38      1.0000 0.71972  0.09730  0.47762  Biso   1.000  O 
  B510     1.0000 0.61140  0.21490  0.50000  Biso   1.000  B 
  B511     1.0000 0.63260  0.07190  0.50000  Biso   1.000  B 
  B512     1.0000 0.57190  0.13260  0.50000  Biso   1.000  B 
  C145     1.0000 0.76987  0.07871  0.48613  Biso   1.000  C 
  C146     1.0000 0.74494  0.42773  0.51839  Biso   1.000  C 
  C147     1.0000 0.78037  0.03932  0.44683  Biso   1.000  C 
  H325     1.0000 0.77171  0.06677  0.52441  Biso   1.000  H 
  H326     1.0000 0.80123  0.10605  0.47855  Biso   1.000  H 
  H327     1.0000 0.75939  0.00848  0.45874  Biso   1.000  H 
  C148     1.0000 0.83686  0.02741  0.43924  Biso   1.000  C 
  H328     1.0000 0.76683  0.05541  0.41099  Biso   1.000  H 
  C149     1.0000 0.85088  0.97761  0.41136  Biso   1.000  C 
  H329     1.0000 0.85632  0.03207  0.47544  Biso   1.000  H 
  H330     1.0000 0.84929  0.05659  0.41365  Biso   1.000  H 
  C150     1.0000 0.69287  0.43097  0.49246  Biso   1.000  C 
  H331     1.0000 0.75835  0.46569  0.52722  Biso   1.000  H 
  H332     1.0000 0.74075  0.40694  0.55407  Biso   1.000  H 
  C151     1.0000 0.68987  0.43437  0.43463  Biso   1.000  C 
  H333     1.0000 0.67255  0.46223  0.50861  Biso   1.000  H 
  H334     1.0000 0.67191  0.39656  0.50348  Biso   1.000  H 
  H335     1.0000 0.72584  0.44842  0.42072  Biso   1.000  H 
  C152     1.0000 0.64884  0.46854  0.41256  Biso   1.000  C 
  H336     1.0000 0.68394  0.39642  0.41965  Biso   1.000  H 
  H337     1.0000 0.61181  0.46242  0.42953  Biso   1.000  H 
  H338     1.0000 0.64606  0.46045  0.37221  Biso   1.000  H 
  H339     1.0000 0.65970  0.50822  0.41664  Biso   1.000  H 
  H340     1.0000 0.89149  0.96935  0.41230  Biso   1.000  H 
  H341     1.0000 0.83556  0.97953  0.37425  Biso   1.000  H 
  H342     1.0000 0.83308  0.94733  0.43323  Biso   1.000  H 
  B513     1.0000 0.92810  0.63260  0.50000  Biso   1.000  B 
  B514     1.0000 0.88280  0.61720  0.50000  Biso   1.000  B 
  B515     1.0000 0.86740  0.57190  0.50000  Biso   1.000  B 
  B516     1.0000 0.84350  0.65650  0.50000  Biso   1.000  B 
  B517     1.0000 0.85530  0.70580  0.50000  Biso   1.000  B 
  B518     1.0000 0.79420  0.64470  0.50000  Biso   1.000  B 
  B519     1.0000 0.82050  0.74200  0.50000  Biso   1.000  B 
  B520     1.0000 0.88860  0.71490  0.50000  Biso   1.000  B 
  B521     1.0000 0.75800  0.67950  0.50000  Biso   1.000  B 
  O39      1.0000 0.78060  0.59322  0.51386  Biso   1.000  O 
  B522     1.0000 0.76930  0.73070  0.50000  Biso   1.000  B 
  B523     1.0000 0.73070  0.76930  0.50000  Biso   1.000  B 
  B524     1.0000 0.83050  0.77510  0.50000  Biso   1.000  B 
  B525     1.0000 0.74200  0.82050  0.50000  Biso   1.000  B 
  B526     1.0000 0.72490  0.66950  0.50000  Biso   1.000  B 
  B527     1.0000 0.67950  0.75800  0.50000  Biso   1.000  B 
  B528     1.0000 0.70580  0.85530  0.50000  Biso   1.000  B 
  B529     1.0000 0.77510  0.83050  0.50000  Biso   1.000  B 
  B530     1.0000 0.64470  0.79420  0.50000  Biso   1.000  B 
  B531     1.0000 0.66950  0.72490  0.50000  Biso   1.000  B 
  B532     1.0000 0.65650  0.84350  0.50000  Biso   1.000  B 
  B533     1.0000 0.61720  0.88280  0.50000  Biso   1.000  B 
  O40      1.0000 0.71972  0.90270  0.52238  Biso   1.000  O 
  B534     1.0000 0.61140  0.78510  0.50000  Biso   1.000  B 
  B535     1.0000 0.63260  0.92810  0.50000  Biso   1.000  B 
  B536     1.0000 0.57190  0.86740  0.50000  Biso   1.000  B 
  C153     1.0000 0.76987  0.92129  0.51387  Biso   1.000  C 
  C154     1.0000 0.74494  0.57227  0.48161  Biso   1.000  C 
  C155     1.0000 0.78037  0.96068  0.55317  Biso   1.000  C 
  H343     1.0000 0.77171  0.93323  0.47559  Biso   1.000  H 
  H344     1.0000 0.80123  0.89395  0.52145  Biso   1.000  H 
  H345     1.0000 0.75939  0.99152  0.54126  Biso   1.000  H 
  C156     1.0000 0.83686  0.97259  0.56076  Biso   1.000  C 
  H346     1.0000 0.76683  0.94459  0.58901  Biso   1.000  H 
  C157     1.0000 0.85088  0.02239  0.58864  Biso   1.000  C 
  H347     1.0000 0.85632  0.96793  0.52456  Biso   1.000  H 
  H348     1.0000 0.84929  0.94341  0.58635  Biso   1.000  H 
  C158     1.0000 0.69287  0.56903  0.50754  Biso   1.000  C 
  H349     1.0000 0.75835  0.53431  0.47278  Biso   1.000  H 
  H350     1.0000 0.74075  0.59306  0.44593  Biso   1.000  H 
  C159     1.0000 0.68987  0.56563  0.56537  Biso   1.000  C 
  H351     1.0000 0.67255  0.53777  0.49139  Biso   1.000  H 
  H352     1.0000 0.67191  0.60344  0.49652  Biso   1.000  H 
  H353     1.0000 0.72584  0.55158  0.57928  Biso   1.000  H 
  C160     1.0000 0.64884  0.53146  0.58744  Biso   1.000  C 
  H354     1.0000 0.68394  0.60358  0.58035  Biso   1.000  H 
  H355     1.0000 0.61181  0.53758  0.57047  Biso   1.000  H 
  H356     1.0000 0.64606  0.53955  0.62779  Biso   1.000  H 
  H357     1.0000 0.65970  0.49178  0.58336  Biso   1.000  H 
  H358     1.0000 0.89149  0.03065  0.58770  Biso   1.000  H 
  H359     1.0000 0.83556  0.02047  0.62575  Biso   1.000  H 
  H360     1.0000 0.83308  0.05268  0.56677  Biso   1.000  H 
  B537     1.0000 0.50000  0.07190  0.63260  Biso   1.000  B 
  B538     1.0000 0.50000  0.11720  0.61720  Biso   1.000  B 
  B539     1.0000 0.50000  0.13260  0.57190  Biso   1.000  B 
  B540     1.0000 0.50000  0.15650  0.65650  Biso   1.000  B 
  B541     1.0000 0.50000  0.14470  0.70580  Biso   1.000  B 
  B542     1.0000 0.50000  0.20580  0.64470  Biso   1.000  B 
  B543     1.0000 0.50000  0.17950  0.74200  Biso   1.000  B 
  B544     1.0000 0.50000  0.11140  0.71490  Biso   1.000  B 
  B545     1.0000 0.50000  0.24200  0.67950  Biso   1.000  B 
  O41      1.0000 0.48481  0.21913  0.59487  Biso   1.000  O 
  B546     1.0000 0.50000  0.23070  0.73070  Biso   1.000  B 
  B547     1.0000 0.50000  0.26930  0.76930  Biso   1.000  B 
  B548     1.0000 0.50000  0.16950  0.77510  Biso   1.000  B 
  B549     1.0000 0.50000  0.25800  0.82050  Biso   1.000  B 
  B550     1.0000 0.50000  0.27510  0.66950  Biso   1.000  B 
  B551     1.0000 0.50000  0.32050  0.75800  Biso   1.000  B 
  B552     1.0000 0.50000  0.29420  0.85530  Biso   1.000  B 
  B553     1.0000 0.50000  0.22490  0.83050  Biso   1.000  B 
  B554     1.0000 0.50000  0.35530  0.79420  Biso   1.000  B 
  B555     1.0000 0.50000  0.33050  0.72490  Biso   1.000  B 
  B556     1.0000 0.50000  0.34350  0.84350  Biso   1.000  B 
  B557     1.0000 0.50000  0.38280  0.88280  Biso   1.000  B 
  O42      1.0000 0.49292  0.27900  0.90707  Biso   1.000  O 
  B558     1.0000 0.50000  0.38860  0.78510  Biso   1.000  B 
  B559     1.0000 0.50000  0.36740  0.92810  Biso   1.000  B 
  B560     1.0000 0.50000  0.42810  0.86740  Biso   1.000  B 
  C161     1.0000 0.44033  0.27538  0.91279  Biso   1.000  C 
  C162     1.0000 0.51900  0.25288  0.57448  Biso   1.000  C 
  C163     1.0000 0.43890  0.22885  0.94443  Biso   1.000  C 
  H361     1.0000 0.42026  0.26700  0.87719  Biso   1.000  H 
  H362     1.0000 0.42304  0.30737  0.92956  Biso   1.000  H 
  H363     1.0000 0.45991  0.23480  0.97874  Biso   1.000  H 
  C164     1.0000 0.46279  0.18099  0.92136  Biso   1.000  C 
  H364     1.0000 0.40054  0.22107  0.95159  Biso   1.000  H 
  C165     1.0000 0.44170  0.13482  0.94786  Biso   1.000  C 
  H365     1.0000 0.50373  0.18443  0.92342  Biso   1.000  H 
  H366     1.0000 0.45555  0.17492  0.88147  Biso   1.000  H 
  C166     1.0000 0.49571  0.30446  0.57191  Biso   1.000  C 
  H367     1.0000 0.52834  0.23868  0.53691  Biso   1.000  H 
  H368     1.0000 0.55429  0.25615  0.59587  Biso   1.000  H 
  C167     1.0000 0.44345  0.30222  0.55012  Biso   1.000  C 
  H369     1.0000 0.52033  0.32822  0.54814  Biso   1.000  H 
  H370     1.0000 0.49426  0.32261  0.60934  Biso   1.000  H 
  H371     1.0000 0.44464  0.28934  0.51231  Biso   1.000  H 
  C168     1.0000 0.41655  0.35216  0.55161  Biso   1.000  C 
  H372     1.0000 0.42135  0.27379  0.57066  Biso   1.000  H 
  H373     1.0000 0.42678  0.37364  0.58462  Biso   1.000  H 
  H374     1.0000 0.37623  0.34386  0.55130  Biso   1.000  H 
  H375     1.0000 0.42497  0.37364  0.51749  Biso   1.000  H 
  H376     1.0000 0.45885  0.12767  0.98324  Biso   1.000  H 
  H377     1.0000 0.45145  0.10352  0.92321  Biso   1.000  H 
  H378     1.0000 0.40073  0.13596  0.95335  Biso   1.000  H 
  B561     1.0000 0.50000  0.07190  0.36740  Biso   1.000  B 
  B562     1.0000 0.50000  0.11720  0.38280  Biso   1.000  B 
  B563     1.0000 0.50000  0.13260  0.42810  Biso   1.000  B 
  B564     1.0000 0.50000  0.15650  0.34350  Biso   1.000  B 
  B565     1.0000 0.50000  0.14470  0.29420  Biso   1.000  B 
  B566     1.0000 0.50000  0.20580  0.35530  Biso   1.000  B 
  B567     1.0000 0.50000  0.17950  0.25800  Biso   1.000  B 
  B568     1.0000 0.50000  0.11140  0.28510  Biso   1.000  B 
  B569     1.0000 0.50000  0.24200  0.32050  Biso   1.000  B 
  O43      1.0000 0.51519  0.21913  0.40513  Biso   1.000  O 
  B570     1.0000 0.50000  0.23070  0.26930  Biso   1.000  B 
  B571     1.0000 0.50000  0.26930  0.23070  Biso   1.000  B 
  B572     1.0000 0.50000  0.16950  0.22490  Biso   1.000  B 
  B573     1.0000 0.50000  0.25800  0.17950  Biso   1.000  B 
  B574     1.0000 0.50000  0.27510  0.33050  Biso   1.000  B 
  B575     1.0000 0.50000  0.32050  0.24200  Biso   1.000  B 
  B576     1.0000 0.50000  0.29420  0.14470  Biso   1.000  B 
  B577     1.0000 0.50000  0.22490  0.16950  Biso   1.000  B 
  B578     1.0000 0.50000  0.35530  0.20580  Biso   1.000  B 
  B579     1.0000 0.50000  0.33050  0.27510  Biso   1.000  B 
  B580     1.0000 0.50000  0.34350  0.15650  Biso   1.000  B 
  B581     1.0000 0.50000  0.38280  0.11720  Biso   1.000  B 
  O44      1.0000 0.50708  0.27900  0.09293  Biso   1.000  O 
  B582     1.0000 0.50000  0.38860  0.21490  Biso   1.000  B 
  B583     1.0000 0.50000  0.36740  0.07190  Biso   1.000  B 
  B584     1.0000 0.50000  0.42810  0.13260  Biso   1.000  B 
  C169     1.0000 0.55967  0.27538  0.08721  Biso   1.000  C 
  C170     1.0000 0.48100  0.25288  0.42552  Biso   1.000  C 
  C171     1.0000 0.56110  0.22885  0.05557  Biso   1.000  C 
  H379     1.0000 0.57974  0.26700  0.12281  Biso   1.000  H 
  H380     1.0000 0.57696  0.30737  0.07044  Biso   1.000  H 
  H381     1.0000 0.54009  0.23480  0.02125  Biso   1.000  H 
  C172     1.0000 0.53721  0.18099  0.07864  Biso   1.000  C 
  H382     1.0000 0.59946  0.22107  0.04841  Biso   1.000  H 
  C173     1.0000 0.55830  0.13482  0.05214  Biso   1.000  C 
  H383     1.0000 0.49627  0.18443  0.07659  Biso   1.000  H 
  H384     1.0000 0.54445  0.17492  0.11853  Biso   1.000  H 
  C174     1.0000 0.50429  0.30446  0.42809  Biso   1.000  C 
  H385     1.0000 0.47166  0.23868  0.46309  Biso   1.000  H 
  H386     1.0000 0.44571  0.25615  0.40413  Biso   1.000  H 
  C175     1.0000 0.55655  0.30222  0.44988  Biso   1.000  C 
  H387     1.0000 0.47967  0.32822  0.45186  Biso   1.000  H 
  H388     1.0000 0.50574  0.32261  0.39066  Biso   1.000  H 
  H389     1.0000 0.55536  0.28934  0.48769  Biso   1.000  H 
  C176     1.0000 0.58345  0.35216  0.44839  Biso   1.000  C 
  H390     1.0000 0.57865  0.27379  0.42934  Biso   1.000  H 
  H391     1.0000 0.57322  0.37364  0.41538  Biso   1.000  H 
  H392     1.0000 0.62377  0.34386  0.44870  Biso   1.000  H 
  H393     1.0000 0.57503  0.37364  0.48251  Biso   1.000  H 
  H394     1.0000 0.54115  0.12767  0.01676  Biso   1.000  H 
  H395     1.0000 0.54855  0.10352  0.07679  Biso   1.000  H 
  H396     1.0000 0.59927  0.13596  0.04665  Biso   1.000  H 
  B585     1.0000 0.50000  0.92810  0.36740  Biso   1.000  B 
  B586     1.0000 0.50000  0.88280  0.38280  Biso   1.000  B 
  B587     1.0000 0.50000  0.86740  0.42810  Biso   1.000  B 
  B588     1.0000 0.50000  0.84350  0.34350  Biso   1.000  B 
  B589     1.0000 0.50000  0.85530  0.29420  Biso   1.000  B 
  B590     1.0000 0.50000  0.79420  0.35530  Biso   1.000  B 
  B591     1.0000 0.50000  0.82050  0.25800  Biso   1.000  B 
  B592     1.0000 0.50000  0.88860  0.28510  Biso   1.000  B 
  B593     1.0000 0.50000  0.75800  0.32050  Biso   1.000  B 
  O45      1.0000 0.48481  0.78087  0.40513  Biso   1.000  O 
  B594     1.0000 0.50000  0.76930  0.26930  Biso   1.000  B 
  B595     1.0000 0.50000  0.73070  0.23070  Biso   1.000  B 
  B596     1.0000 0.50000  0.83050  0.22490  Biso   1.000  B 
  B597     1.0000 0.50000  0.74200  0.17950  Biso   1.000  B 
  B598     1.0000 0.50000  0.72490  0.33050  Biso   1.000  B 
  B599     1.0000 0.50000  0.67950  0.24200  Biso   1.000  B 
  B600     1.0000 0.50000  0.70580  0.14470  Biso   1.000  B 
  B601     1.0000 0.50000  0.77510  0.16950  Biso   1.000  B 
  B602     1.0000 0.50000  0.64470  0.20580  Biso   1.000  B 
  B603     1.0000 0.50000  0.66950  0.27510  Biso   1.000  B 
  B604     1.0000 0.50000  0.65650  0.15650  Biso   1.000  B 
  B605     1.0000 0.50000  0.61720  0.11720  Biso   1.000  B 
  O46      1.0000 0.49292  0.72100  0.09293  Biso   1.000  O 
  B606     1.0000 0.50000  0.61140  0.21490  Biso   1.000  B 
  B607     1.0000 0.50000  0.63260  0.07190  Biso   1.000  B 
  B608     1.0000 0.50000  0.57190  0.13260  Biso   1.000  B 
  C177     1.0000 0.44033  0.72462  0.08721  Biso   1.000  C 
  C178     1.0000 0.51900  0.74712  0.42552  Biso   1.000  C 
  C179     1.0000 0.43890  0.77115  0.05557  Biso   1.000  C 
  H397     1.0000 0.42026  0.73300  0.12281  Biso   1.000  H 
  H398     1.0000 0.42304  0.69263  0.07044  Biso   1.000  H 
  H399     1.0000 0.45991  0.76520  0.02125  Biso   1.000  H 
  C180     1.0000 0.46279  0.81901  0.07864  Biso   1.000  C 
  H400     1.0000 0.40054  0.77893  0.04841  Biso   1.000  H 
  C181     1.0000 0.44170  0.86518  0.05214  Biso   1.000  C 
  H401     1.0000 0.50373  0.81557  0.07659  Biso   1.000  H 
  H402     1.0000 0.45555  0.82507  0.11853  Biso   1.000  H 
  C182     1.0000 0.49571  0.69554  0.42809  Biso   1.000  C 
  H403     1.0000 0.52834  0.76131  0.46309  Biso   1.000  H 
  H404     1.0000 0.55429  0.74385  0.40413  Biso   1.000  H 
  C183     1.0000 0.44345  0.69778  0.44988  Biso   1.000  C 
  H405     1.0000 0.52033  0.67178  0.45186  Biso   1.000  H 
  H406     1.0000 0.49426  0.67739  0.39066  Biso   1.000  H 
  H407     1.0000 0.44464  0.71066  0.48769  Biso   1.000  H 
  C184     1.0000 0.41655  0.64784  0.44839  Biso   1.000  C 
  H408     1.0000 0.42135  0.72620  0.42934  Biso   1.000  H 
  H409     1.0000 0.42678  0.62636  0.41538  Biso   1.000  H 
  H410     1.0000 0.37623  0.65614  0.44870  Biso   1.000  H 
  H411     1.0000 0.42497  0.62636  0.48251  Biso   1.000  H 
  H412     1.0000 0.45885  0.87233  0.01676  Biso   1.000  H 
  H413     1.0000 0.45145  0.89648  0.07679  Biso   1.000  H 
  H414     1.0000 0.40073  0.86404  0.04665  Biso   1.000  H 
  B609     1.0000 0.50000  0.92810  0.63260  Biso   1.000  B 
  B610     1.0000 0.50000  0.88280  0.61720  Biso   1.000  B 
  B611     1.0000 0.50000  0.86740  0.57190  Biso   1.000  B 
  B612     1.0000 0.50000  0.84350  0.65650  Biso   1.000  B 
  B613     1.0000 0.50000  0.85530  0.70580  Biso   1.000  B 
  B614     1.0000 0.50000  0.79420  0.64470  Biso   1.000  B 
  B615     1.0000 0.50000  0.82050  0.74200  Biso   1.000  B 
  B616     1.0000 0.50000  0.88860  0.71490  Biso   1.000  B 
  B617     1.0000 0.50000  0.75800  0.67950  Biso   1.000  B 
  O47      1.0000 0.51519  0.78087  0.59487  Biso   1.000  O 
  B618     1.0000 0.50000  0.76930  0.73070  Biso   1.000  B 
  B619     1.0000 0.50000  0.73070  0.76930  Biso   1.000  B 
  B620     1.0000 0.50000  0.83050  0.77510  Biso   1.000  B 
  B621     1.0000 0.50000  0.74200  0.82050  Biso   1.000  B 
  B622     1.0000 0.50000  0.72490  0.66950  Biso   1.000  B 
  B623     1.0000 0.50000  0.67950  0.75800  Biso   1.000  B 
  B624     1.0000 0.50000  0.70580  0.85530  Biso   1.000  B 
  B625     1.0000 0.50000  0.77510  0.83050  Biso   1.000  B 
  B626     1.0000 0.50000  0.64470  0.79420  Biso   1.000  B 
  B627     1.0000 0.50000  0.66950  0.72490  Biso   1.000  B 
  B628     1.0000 0.50000  0.65650  0.84350  Biso   1.000  B 
  B629     1.0000 0.50000  0.61720  0.88280  Biso   1.000  B 
  O48      1.0000 0.50708  0.72100  0.90707  Biso   1.000  O 
  B630     1.0000 0.50000  0.61140  0.78510  Biso   1.000  B 
  B631     1.0000 0.50000  0.63260  0.92810  Biso   1.000  B 
  B632     1.0000 0.50000  0.57190  0.86740  Biso   1.000  B 
  C185     1.0000 0.55967  0.72462  0.91279  Biso   1.000  C 
  C186     1.0000 0.48100  0.74712  0.57448  Biso   1.000  C 
  C187     1.0000 0.56110  0.77115  0.94443  Biso   1.000  C 
  H415     1.0000 0.57974  0.73300  0.87719  Biso   1.000  H 
  H416     1.0000 0.57696  0.69263  0.92956  Biso   1.000  H 
  H417     1.0000 0.54009  0.76520  0.97874  Biso   1.000  H 
  C188     1.0000 0.53721  0.81901  0.92136  Biso   1.000  C 
  H418     1.0000 0.59946  0.77893  0.95159  Biso   1.000  H 
  C189     1.0000 0.55830  0.86518  0.94786  Biso   1.000  C 
  H419     1.0000 0.49627  0.81557  0.92341  Biso   1.000  H 
  H420     1.0000 0.54445  0.82507  0.88147  Biso   1.000  H 
  C190     1.0000 0.50429  0.69554  0.57191  Biso   1.000  C 
  H421     1.0000 0.47166  0.76131  0.53691  Biso   1.000  H 
  H422     1.0000 0.44571  0.74385  0.59587  Biso   1.000  H 
  C191     1.0000 0.55655  0.69778  0.55012  Biso   1.000  C 
  H423     1.0000 0.47967  0.67178  0.54814  Biso   1.000  H 
  H424     1.0000 0.50574  0.67739  0.60934  Biso   1.000  H 
  H425     1.0000 0.55536  0.71066  0.51231  Biso   1.000  H 
  C192     1.0000 0.58345  0.64784  0.55161  Biso   1.000  C 
  H426     1.0000 0.57865  0.72620  0.57066  Biso   1.000  H 
  H427     1.0000 0.57322  0.62636  0.58462  Biso   1.000  H 
  H428     1.0000 0.62377  0.65614  0.55130  Biso   1.000  H 
  H429     1.0000 0.57503  0.62636  0.51749  Biso   1.000  H 
  H430     1.0000 0.54115  0.87233  0.98324  Biso   1.000  H 
  H431     1.0000 0.54855  0.89648  0.92321  Biso   1.000  H 
  H432     1.0000 0.59927  0.86404  0.95335  Biso   1.000  H 
