data_image0
_cell_length_a       20.7004
_cell_length_b       20.7004
_cell_length_c       20.7004
_cell_angle_alpha    90
_cell_angle_beta     90
_cell_angle_gamma    90

_symmetry_space_group_name_H-M    "P 1"
_symmetry_int_tables_number       1

loop_
  _symmetry_equiv_pos_as_xyz
  'x, y, z'

loop_
  _atom_site_label
  _atom_site_occupancy
  _atom_site_fract_x
  _atom_site_fract_y
  _atom_site_fract_z
  _atom_site_thermal_displace_type
  _atom_site_B_iso_or_equiv
  _atom_site_type_symbol
  B1       1.0000 0.11989  0.00000  0.00000  Biso   1.000  B 
  B2       1.0000 0.11989  0.50000  0.50000  Biso   1.000  B 
  B3       1.0000 0.61989  0.00000  0.50000  Biso   1.000  B 
  B4       1.0000 0.61989  0.50000  0.00000  Biso   1.000  B 
  B5       1.0000 0.88011  0.00000  0.00000  Biso   1.000  B 
  B6       1.0000 0.88011  0.50000  0.50000  Biso   1.000  B 
  B7       1.0000 0.38011  0.00000  0.50000  Biso   1.000  B 
  B8       1.0000 0.38011  0.50000  0.00000  Biso   1.000  B 
  B9       1.0000 0.00000  0.11989  0.00000  Biso   1.000  B 
  B10      1.0000 0.00000  0.61989  0.50000  Biso   1.000  B 
  B11      1.0000 0.50000  0.11989  0.50000  Biso   1.000  B 
  B12      1.0000 0.50000  0.61989  0.00000  Biso   1.000  B 
  B13      1.0000 0.00000  0.88011  0.00000  Biso   1.000  B 
  B14      1.0000 0.00000  0.38011  0.50000  Biso   1.000  B 
  B15      1.0000 0.50000  0.88011  0.50000  Biso   1.000  B 
  B16      1.0000 0.50000  0.38011  0.00000  Biso   1.000  B 
  B17      1.0000 0.00000  0.00000  0.11989  Biso   1.000  B 
  B18      1.0000 0.00000  0.50000  0.61989  Biso   1.000  B 
  B19      1.0000 0.50000  0.00000  0.61989  Biso   1.000  B 
  B20      1.0000 0.50000  0.50000  0.11989  Biso   1.000  B 
  B21      1.0000 0.00000  0.00000  0.88011  Biso   1.000  B 
  B22      1.0000 0.00000  0.50000  0.38011  Biso   1.000  B 
  B23      1.0000 0.50000  0.00000  0.38011  Biso   1.000  B 
  B24      1.0000 0.50000  0.50000  0.88011  Biso   1.000  B 
  B25      1.0000 0.05610  0.44390  0.44390  Biso   1.000  B 
  B26      1.0000 0.55610  0.94390  0.44390  Biso   1.000  B 
  B27      1.0000 0.55610  0.44390  0.94390  Biso   1.000  B 
  B28      1.0000 0.44390  0.05610  0.44390  Biso   1.000  B 
  B29      1.0000 0.44390  0.55610  0.94390  Biso   1.000  B 
  B30      1.0000 0.94390  0.94390  0.05610  Biso   1.000  B 
  B31      1.0000 0.94390  0.44390  0.55610  Biso   1.000  B 
  B32      1.0000 0.05610  0.05610  0.05610  Biso   1.000  B 
  B33      1.0000 0.55610  0.55610  0.05610  Biso   1.000  B 
  B34      1.0000 0.94390  0.05610  0.05610  Biso   1.000  B 
  B35      1.0000 0.94390  0.55610  0.55610  Biso   1.000  B 
  B36      1.0000 0.44390  0.05610  0.55610  Biso   1.000  B 
  B37      1.0000 0.44390  0.55610  0.05610  Biso   1.000  B 
  B38      1.0000 0.05610  0.94390  0.05610  Biso   1.000  B 
  B39      1.0000 0.05610  0.44390  0.55610  Biso   1.000  B 
  B40      1.0000 0.55610  0.94390  0.55610  Biso   1.000  B 
  B41      1.0000 0.55610  0.44390  0.05610  Biso   1.000  B 
  B42      1.0000 0.94390  0.94390  0.94390  Biso   1.000  B 
  B43      1.0000 0.94390  0.44390  0.44390  Biso   1.000  B 
  B44      1.0000 0.44390  0.94390  0.44390  Biso   1.000  B 
  B45      1.0000 0.44390  0.44390  0.94390  Biso   1.000  B 
  B46      1.0000 0.05610  0.05610  0.94390  Biso   1.000  B 
  B47      1.0000 0.05610  0.55610  0.44390  Biso   1.000  B 
  B48      1.0000 0.55610  0.05610  0.44390  Biso   1.000  B 
  B49      1.0000 0.15360  0.00000  0.84640  Biso   1.000  B 
  B50      1.0000 0.17046  0.00000  0.90471  Biso   1.000  B 
  B51      1.0000 0.09529  0.00000  0.82954  Biso   1.000  B 
  B52      1.0000 0.20500  0.00000  0.79500  Biso   1.000  B 
  B53      1.0000 0.18437  0.00000  0.73249  Biso   1.000  B 
  N1       1.0000 0.11440  0.98169  0.71534  Biso   1.000  N 
  B54      1.0000 0.22128  0.00000  0.63051  Biso   1.000  B 
  B55      1.0000 0.23249  0.00000  0.68442  Biso   1.000  B 
  B56      1.0000 0.29500  0.00000  0.70500  Biso   1.000  B 
  B57      1.0000 0.31558  0.00000  0.76751  Biso   1.000  B 
  B58      1.0000 0.26751  0.00000  0.81563  Biso   1.000  B 
  B59      1.0000 0.27872  0.00000  0.86954  Biso   1.000  B 
  B60      1.0000 0.36949  0.00000  0.77872  Biso   1.000  B 
  B61      1.0000 0.40470  0.00000  0.67046  Biso   1.000  B 
  B62      1.0000 0.34640  0.00000  0.65360  Biso   1.000  B 
  B63      1.0000 0.32954  0.00000  0.59529  Biso   1.000  B 
  H1       1.0000 0.10753  0.93547  0.73625  Biso   1.000  H 
  C1       1.0000 0.10398  0.97555  0.64402  Biso   1.000  C 
  H2       1.0000 0.12251  0.01803  0.61769  Biso   1.000  H 
  C2       1.0000 0.03288  0.97432  0.62810  Biso   1.000  C 
  C3       1.0000 0.13649  0.91203  0.62169  Biso   1.000  C 
  C4       1.0000 0.09516  0.88269  0.57468  Biso   1.000  C 
  H3       1.0000 0.08699  0.83258  0.58982  Biso   1.000  H 
  H4       1.0000 0.12180  0.88186  0.52838  Biso   1.000  H 
  C5       1.0000 0.03602  0.92433  0.56996  Biso   1.000  C 
  H5       1.0000 0.01759  0.02174  0.61297  Biso   1.000  H 
  H6       1.0000 0.00278  0.96107  0.66990  Biso   1.000  H 
  H7       1.0000 0.99621  0.89015  0.57378  Biso   1.000  H 
  H8       1.0000 0.02949  0.94682  0.52266  Biso   1.000  H 
  H9       1.0000 0.14054  0.87620  0.66162  Biso   1.000  H 
  H10      1.0000 0.18526  0.91548  0.59923  Biso   1.000  H 
  B64      1.0000 0.15360  0.50000  0.34640  Biso   1.000  B 
  B65      1.0000 0.17046  0.50000  0.40471  Biso   1.000  B 
  B66      1.0000 0.09529  0.50000  0.32954  Biso   1.000  B 
  B67      1.0000 0.20500  0.50000  0.29500  Biso   1.000  B 
  B68      1.0000 0.18437  0.50000  0.23249  Biso   1.000  B 
  N2       1.0000 0.11489  0.48840  0.21146  Biso   1.000  N 
  B69      1.0000 0.22128  0.50000  0.13051  Biso   1.000  B 
  B70      1.0000 0.23249  0.50000  0.18442  Biso   1.000  B 
  B71      1.0000 0.29500  0.50000  0.20500  Biso   1.000  B 
  B72      1.0000 0.31558  0.50000  0.26751  Biso   1.000  B 
  B73      1.0000 0.26751  0.50000  0.31563  Biso   1.000  B 
  B74      1.0000 0.27872  0.50000  0.36954  Biso   1.000  B 
  B75      1.0000 0.36949  0.50000  0.27872  Biso   1.000  B 
  B76      1.0000 0.40470  0.50000  0.17046  Biso   1.000  B 
  B77      1.0000 0.34640  0.50000  0.15360  Biso   1.000  B 
  B78      1.0000 0.32954  0.50000  0.09529  Biso   1.000  B 
  H11      1.0000 0.09693  0.44767  0.23598  Biso   1.000  H 
  C6       1.0000 0.10678  0.47095  0.14160  Biso   1.000  C 
  H12      1.0000 0.12210  0.51204  0.11002  Biso   1.000  H 
  C7       1.0000 0.03455  0.45930  0.12857  Biso   1.000  C 
  C8       1.0000 0.14184  0.40487  0.12329  Biso   1.000  C 
  C9       1.0000 0.09979  0.37904  0.06554  Biso   1.000  C 
  H13      1.0000 0.09792  0.32584  0.07327  Biso   1.000  H 
  H14      1.0000 0.11971  0.39407  0.01837  Biso   1.000  H 
  C10      1.0000 0.03485  0.40806  0.07555  Biso   1.000  C 
  H15      1.0000 0.01144  0.50310  0.11028  Biso   1.000  H 
  H16      1.0000 0.00726  0.44410  0.17053  Biso   1.000  H 
  H17      1.0000 0.00534  0.36810  0.08970  Biso   1.000  H 
  H18      1.0000 0.01725  0.42840  0.02861  Biso   1.000  H 
  H19      1.0000 0.13351  0.37098  0.16532  Biso   1.000  H 
  H20      1.0000 0.19275  0.40400  0.10847  Biso   1.000  H 
  B79      1.0000 0.65360  0.00000  0.34640  Biso   1.000  B 
  B80      1.0000 0.67046  0.00000  0.40471  Biso   1.000  B 
  B81      1.0000 0.59529  0.00000  0.32954  Biso   1.000  B 
  B82      1.0000 0.70500  0.00000  0.29500  Biso   1.000  B 
  B83      1.0000 0.68437  0.00000  0.23249  Biso   1.000  B 
  N3       1.0000 0.61336  0.99537  0.21418  Biso   1.000  N 
  B84      1.0000 0.72128  0.00000  0.13051  Biso   1.000  B 
  B85      1.0000 0.73248  0.00000  0.18442  Biso   1.000  B 
  B86      1.0000 0.79499  0.00000  0.20500  Biso   1.000  B 
  B87      1.0000 0.81558  0.00000  0.26751  Biso   1.000  B 
  B88      1.0000 0.76751  0.00000  0.31563  Biso   1.000  B 
  B89      1.0000 0.77872  0.00000  0.36954  Biso   1.000  B 
  B90      1.0000 0.86949  0.00000  0.27872  Biso   1.000  B 
  B91      1.0000 0.90470  0.00000  0.17046  Biso   1.000  B 
  B92      1.0000 0.84639  0.00000  0.15360  Biso   1.000  B 
  B93      1.0000 0.82953  0.00000  0.09529  Biso   1.000  B 
  H21      1.0000 0.59500  0.95436  0.23711  Biso   1.000  H 
  C11      1.0000 0.60016  0.97825  0.14818  Biso   1.000  C 
  H22      1.0000 0.62292  0.01438  0.11998  Biso   1.000  H 
  C12      1.0000 0.52913  0.97741  0.13107  Biso   1.000  C 
  C13      1.0000 0.62443  0.90807  0.13290  Biso   1.000  C 
  C14      1.0000 0.58119  0.88019  0.08077  Biso   1.000  C 
  H23      1.0000 0.57503  0.82746  0.08656  Biso   1.000  H 
  H24      1.0000 0.60289  0.88663  0.03183  Biso   1.000  H 
  C15      1.0000 0.52152  0.92179  0.08025  Biso   1.000  C 
  H25      1.0000 0.51778  0.02190  0.10835  Biso   1.000  H 
  H26      1.0000 0.49858  0.97251  0.17566  Biso   1.000  H 
  H27      1.0000 0.47742  0.89610  0.08714  Biso   1.000  H 
  H28      1.0000 0.51939  0.94242  0.03188  Biso   1.000  H 
  H29      1.0000 0.62102  0.87401  0.17466  Biso   1.000  H 
  H30      1.0000 0.67466  0.90603  0.11281  Biso   1.000  H 
  B94      1.0000 0.65360  0.50000  0.84640  Biso   1.000  B 
  B95      1.0000 0.67046  0.50000  0.90471  Biso   1.000  B 
  B96      1.0000 0.59529  0.50000  0.82954  Biso   1.000  B 
  B97      1.0000 0.70500  0.50000  0.79500  Biso   1.000  B 
  B98      1.0000 0.68437  0.50000  0.73249  Biso   1.000  B 
  N4       1.0000 0.61404  0.48735  0.71278  Biso   1.000  N 
  B99      1.0000 0.72128  0.50000  0.63051  Biso   1.000  B 
  B100     1.0000 0.73248  0.50000  0.68442  Biso   1.000  B 
  B101     1.0000 0.79499  0.50000  0.70500  Biso   1.000  B 
  B102     1.0000 0.81558  0.50000  0.76751  Biso   1.000  B 
  B103     1.0000 0.76751  0.50000  0.81563  Biso   1.000  B 
  B104     1.0000 0.77872  0.50000  0.86954  Biso   1.000  B 
  B105     1.0000 0.86949  0.50000  0.77872  Biso   1.000  B 
  B106     1.0000 0.90470  0.50000  0.67046  Biso   1.000  B 
  B107     1.0000 0.84639  0.50000  0.65360  Biso   1.000  B 
  B108     1.0000 0.82953  0.50000  0.59529  Biso   1.000  B 
  H31      1.0000 0.59704  0.44598  0.73679  Biso   1.000  H 
  C16      1.0000 0.60061  0.47280  0.64237  Biso   1.000  C 
  H32      1.0000 0.62443  0.51061  0.61253  Biso   1.000  H 
  C17      1.0000 0.52935  0.47297  0.62610  Biso   1.000  C 
  C18      1.0000 0.62129  0.40501  0.62209  Biso   1.000  C 
  C19      1.0000 0.58709  0.39299  0.55822  Biso   1.000  C 
  H33      1.0000 0.57068  0.34214  0.55095  Biso   1.000  H 
  H34      1.0000 0.61889  0.41039  0.51813  Biso   1.000  H 
  C20      1.0000 0.52313  0.43045  0.56416  Biso   1.000  C 
  H35      1.0000 0.51025  0.52005  0.61654  Biso   1.000  H 
  H36      1.0000 0.50357  0.45124  0.66786  Biso   1.000  H 
  H37      1.0000 0.48331  0.39436  0.56970  Biso   1.000  H 
  H38      1.0000 0.51624  0.45877  0.52044  Biso   1.000  H 
  H39      1.0000 0.60944  0.36764  0.65848  Biso   1.000  H 
  H40      1.0000 0.67383  0.40538  0.61339  Biso   1.000  H 
  B109     1.0000 0.84640  0.00000  0.84640  Biso   1.000  B 
  B110     1.0000 0.82954  0.00000  0.90471  Biso   1.000  B 
  B111     1.0000 0.90471  0.00000  0.82954  Biso   1.000  B 
  B112     1.0000 0.79500  0.00000  0.79500  Biso   1.000  B 
  B113     1.0000 0.81563  0.00000  0.73249  Biso   1.000  B 
  N5       1.0000 0.87397  0.95206  0.71333  Biso   1.000  N 
  B114     1.0000 0.77872  0.00000  0.63051  Biso   1.000  B 
  B115     1.0000 0.76752  0.00000  0.68442  Biso   1.000  B 
  B116     1.0000 0.70501  0.00000  0.70500  Biso   1.000  B 
  B117     1.0000 0.68442  0.00000  0.76751  Biso   1.000  B 
  B118     1.0000 0.73249  0.00000  0.81563  Biso   1.000  B 
  B119     1.0000 0.72128  0.00000  0.86954  Biso   1.000  B 
  B120     1.0000 0.63051  0.00000  0.77872  Biso   1.000  B 
  B121     1.0000 0.59530  0.00000  0.67046  Biso   1.000  B 
  B122     1.0000 0.65361  0.00000  0.65360  Biso   1.000  B 
  B123     1.0000 0.67047  0.00000  0.59529  Biso   1.000  B 
  H41      1.0000 0.89866  0.92667  0.75018  Biso   1.000  H 
  C21      1.0000 0.84437  0.89702  0.67115  Biso   1.000  C 
  H42      1.0000 0.81414  0.91476  0.63141  Biso   1.000  H 
  C22      1.0000 0.80727  0.84960  0.70961  Biso   1.000  C 
  C23      1.0000 0.88554  0.85261  0.62985  Biso   1.000  C 
  C24      1.0000 0.86319  0.78383  0.64192  Biso   1.000  C 
  H43      1.0000 0.88747  0.76649  0.68299  Biso   1.000  H 
  H44      1.0000 0.86687  0.74807  0.60436  Biso   1.000  H 
  C25      1.0000 0.79628  0.79253  0.66696  Biso   1.000  C 
  H45      1.0000 0.76025  0.86987  0.72210  Biso   1.000  H 
  H46      1.0000 0.83337  0.84031  0.75560  Biso   1.000  H 
  H47      1.0000 0.77971  0.74698  0.68849  Biso   1.000  H 
  H48      1.0000 0.76157  0.80364  0.62862  Biso   1.000  H 
  H49      1.0000 0.93489  0.86170  0.64387  Biso   1.000  H 
  H50      1.0000 0.88141  0.86424  0.57685  Biso   1.000  H 
  B124     1.0000 0.84640  0.50000  0.34640  Biso   1.000  B 
  B125     1.0000 0.82954  0.50000  0.40471  Biso   1.000  B 
  B126     1.0000 0.90471  0.50000  0.32954  Biso   1.000  B 
  B127     1.0000 0.79500  0.50000  0.29500  Biso   1.000  B 
  B128     1.0000 0.81563  0.50000  0.23249  Biso   1.000  B 
  N6       1.0000 0.87310  0.45594  0.21369  Biso   1.000  N 
  B129     1.0000 0.77872  0.50000  0.13051  Biso   1.000  B 
  B130     1.0000 0.76752  0.50000  0.18442  Biso   1.000  B 
  B131     1.0000 0.70501  0.50000  0.20500  Biso   1.000  B 
  B132     1.0000 0.68442  0.50000  0.26751  Biso   1.000  B 
  B133     1.0000 0.73249  0.50000  0.31563  Biso   1.000  B 
  B134     1.0000 0.72128  0.50000  0.36954  Biso   1.000  B 
  B135     1.0000 0.63051  0.50000  0.27872  Biso   1.000  B 
  B136     1.0000 0.59530  0.50000  0.17046  Biso   1.000  B 
  B137     1.0000 0.65361  0.50000  0.15360  Biso   1.000  B 
  B138     1.0000 0.67047  0.50000  0.09529  Biso   1.000  B 
  H51      1.0000 0.88861  0.42956  0.25298  Biso   1.000  H 
  C26      1.0000 0.84994  0.40491  0.16581  Biso   1.000  C 
  H52      1.0000 0.85389  0.42377  0.11473  Biso   1.000  H 
  C27      1.0000 0.78123  0.37395  0.17748  Biso   1.000  C 
  C28      1.0000 0.88565  0.34336  0.16965  Biso   1.000  C 
  C29      1.0000 0.85132  0.29352  0.13601  Biso   1.000  C 
  H53      1.0000 0.86944  0.24247  0.13615  Biso   1.000  H 
  H54      1.0000 0.85714  0.31146  0.09095  Biso   1.000  H 
  C30      1.0000 0.78281  0.30332  0.15828  Biso   1.000  C 
  H55      1.0000 0.74058  0.39521  0.15050  Biso   1.000  H 
  H56      1.0000 0.77131  0.37388  0.23068  Biso   1.000  H 
  H57      1.0000 0.77644  0.27229  0.20118  Biso   1.000  H 
  H58      1.0000 0.74604  0.29369  0.12475  Biso   1.000  H 
  H59      1.0000 0.89132  0.32879  0.22116  Biso   1.000  H 
  H60      1.0000 0.93002  0.35330  0.14395  Biso   1.000  H 
  B139     1.0000 0.34640  0.00000  0.34640  Biso   1.000  B 
  B140     1.0000 0.32954  0.00000  0.40471  Biso   1.000  B 
  B141     1.0000 0.40471  0.00000  0.32954  Biso   1.000  B 
  B142     1.0000 0.29500  0.00000  0.29500  Biso   1.000  B 
  B143     1.0000 0.31563  0.00000  0.23249  Biso   1.000  B 
  N7       1.0000 0.36610  0.94903  0.21357  Biso   1.000  N 
  B144     1.0000 0.27872  0.00000  0.13051  Biso   1.000  B 
  B145     1.0000 0.26751  0.00000  0.18442  Biso   1.000  B 
  B146     1.0000 0.20500  0.00000  0.20500  Biso   1.000  B 
  B147     1.0000 0.18442  0.00000  0.26751  Biso   1.000  B 
  B148     1.0000 0.23249  0.00000  0.31563  Biso   1.000  B 
  B149     1.0000 0.22128  0.00000  0.36954  Biso   1.000  B 
  B150     1.0000 0.13051  0.00000  0.27872  Biso   1.000  B 
  B151     1.0000 0.09530  0.00000  0.17046  Biso   1.000  B 
  B152     1.0000 0.15360  0.00000  0.15360  Biso   1.000  B 
  B153     1.0000 0.17046  0.00000  0.09529  Biso   1.000  B 
  H61      1.0000 0.38554  0.92600  0.25377  Biso   1.000  H 
  C31      1.0000 0.33909  0.89616  0.16715  Biso   1.000  C 
  H62      1.0000 0.33863  0.91408  0.11575  Biso   1.000  H 
  C32      1.0000 0.27153  0.86788  0.17919  Biso   1.000  C 
  C33      1.0000 0.37549  0.83762  0.17241  Biso   1.000  C 
  C34      1.0000 0.33970  0.78180  0.14771  Biso   1.000  C 
  H63      1.0000 0.35059  0.73411  0.16936  Biso   1.000  H 
  H64      1.0000 0.35561  0.77953  0.09936  Biso   1.000  H 
  C35      1.0000 0.27366  0.79900  0.15530  Biso   1.000  C 
  H65      1.0000 0.23096  0.89033  0.15140  Biso   1.000  H 
  H66      1.0000 0.26106  0.86787  0.23037  Biso   1.000  H 
  H67      1.0000 0.24978  0.76660  0.18961  Biso   1.000  H 
  H68      1.0000 0.24693  0.79194  0.11168  Biso   1.000  H 
  H69      1.0000 0.38348  0.82516  0.22395  Biso   1.000  H 
  H70      1.0000 0.41973  0.84540  0.14782  Biso   1.000  H 
  B154     1.0000 0.34640  0.50000  0.84640  Biso   1.000  B 
  B155     1.0000 0.32954  0.50000  0.90471  Biso   1.000  B 
  B156     1.0000 0.40471  0.50000  0.82954  Biso   1.000  B 
  B157     1.0000 0.29500  0.50000  0.79500  Biso   1.000  B 
  B158     1.0000 0.31563  0.50000  0.73249  Biso   1.000  B 
  N8       1.0000 0.36804  0.45004  0.71383  Biso   1.000  N 
  B159     1.0000 0.27872  0.50000  0.63051  Biso   1.000  B 
  B160     1.0000 0.26751  0.50000  0.68442  Biso   1.000  B 
  B161     1.0000 0.20500  0.50000  0.70500  Biso   1.000  B 
  B162     1.0000 0.18442  0.50000  0.76751  Biso   1.000  B 
  B163     1.0000 0.23249  0.50000  0.81563  Biso   1.000  B 
  B164     1.0000 0.22128  0.50000  0.86954  Biso   1.000  B 
  B165     1.0000 0.13051  0.50000  0.77872  Biso   1.000  B 
  B166     1.0000 0.09530  0.50000  0.67046  Biso   1.000  B 
  B167     1.0000 0.15360  0.50000  0.65360  Biso   1.000  B 
  B168     1.0000 0.17046  0.50000  0.59529  Biso   1.000  B 
  H71      1.0000 0.38613  0.42690  0.75474  Biso   1.000  H 
  C36      1.0000 0.34273  0.39678  0.67155  Biso   1.000  C 
  H72      1.0000 0.33666  0.41596  0.62163  Biso   1.000  H 
  C37      1.0000 0.28117  0.36276  0.68986  Biso   1.000  C 
  C38      1.0000 0.38819  0.34562  0.67376  Biso   1.000  C 
  C39      1.0000 0.35641  0.29285  0.64020  Biso   1.000  C 
  H73      1.0000 0.37836  0.24753  0.64705  Biso   1.000  H 
  H74      1.0000 0.36070  0.30775  0.59207  Biso   1.000  H 
  C40      1.0000 0.28659  0.29550  0.66166  Biso   1.000  C 
  H75      1.0000 0.23632  0.38503  0.66789  Biso   1.000  H 
  H76      1.0000 0.27671  0.36361  0.74332  Biso   1.000  H 
  H77      1.0000 0.27966  0.25533  0.69458  Biso   1.000  H 
  H78      1.0000 0.25136  0.29147  0.62211  Biso   1.000  H 
  H79      1.0000 0.39156  0.32834  0.72292  Biso   1.000  H 
  H80      1.0000 0.43286  0.36088  0.64863  Biso   1.000  H 
  B169     1.0000 0.84640  0.15360  0.00000  Biso   1.000  B 
  B170     1.0000 0.90471  0.17046  0.00000  Biso   1.000  B 
  B171     1.0000 0.82954  0.09529  0.00000  Biso   1.000  B 
  B172     1.0000 0.79500  0.20500  0.00000  Biso   1.000  B 
  B173     1.0000 0.73249  0.18437  0.00000  Biso   1.000  B 
  N9       1.0000 0.71457  0.11451  0.98362  Biso   1.000  N 
  B174     1.0000 0.63051  0.22128  0.00000  Biso   1.000  B 
  B175     1.0000 0.68442  0.23249  0.00000  Biso   1.000  B 
  B176     1.0000 0.70500  0.29500  0.00000  Biso   1.000  B 
  B177     1.0000 0.76751  0.31558  0.00000  Biso   1.000  B 
  B178     1.0000 0.81563  0.26751  0.00000  Biso   1.000  B 
  B179     1.0000 0.86954  0.27872  0.00000  Biso   1.000  B 
  B180     1.0000 0.77872  0.36949  0.00000  Biso   1.000  B 
  B181     1.0000 0.67046  0.40470  0.00000  Biso   1.000  B 
  B182     1.0000 0.65360  0.34640  0.00000  Biso   1.000  B 
  B183     1.0000 0.59529  0.32954  0.00000  Biso   1.000  B 
  H81      1.0000 0.73523  0.10184  0.93927  Biso   1.000  H 
  C41      1.0000 0.64507  0.09999  0.97642  Biso   1.000  C 
  H82      1.0000 0.61954  0.11986  0.01957  Biso   1.000  H 
  C42      1.0000 0.63329  0.02791  0.97587  Biso   1.000  C 
  C43      1.0000 0.62242  0.12425  0.90962  Biso   1.000  C 
  C44      1.0000 0.56651  0.08151  0.89278  Biso   1.000  C 
  H83      1.0000 0.56402  0.06989  0.84052  Biso   1.000  H 
  H84      1.0000 0.52124  0.10787  0.90590  Biso   1.000  H 
  C45      1.0000 0.57513  0.02075  0.93302  Biso   1.000  C 
  H85      1.0000 0.61687  0.01126  0.02159  Biso   1.000  H 
  H86      1.0000 0.67698  0.00046  0.96189  Biso   1.000  H 
  H87      1.0000 0.57698  0.97710  0.90207  Biso   1.000  H 
  H88      1.0000 0.53013  0.01751  0.96050  Biso   1.000  H 
  H89      1.0000 0.65938  0.11223  0.87274  Biso   1.000  H 
  H90      1.0000 0.61103  0.17742  0.90503  Biso   1.000  H 
  B184     1.0000 0.84640  0.65360  0.50000  Biso   1.000  B 
  B185     1.0000 0.90471  0.67046  0.50000  Biso   1.000  B 
  B186     1.0000 0.82954  0.59529  0.50000  Biso   1.000  B 
  B187     1.0000 0.79500  0.70500  0.50000  Biso   1.000  B 
  B188     1.0000 0.73249  0.68437  0.50000  Biso   1.000  B 
  N10      1.0000 0.71138  0.61624  0.48487  Biso   1.000  N 
  B189     1.0000 0.63051  0.72128  0.50000  Biso   1.000  B 
  B190     1.0000 0.68442  0.73248  0.50000  Biso   1.000  B 
  B191     1.0000 0.70500  0.79499  0.50000  Biso   1.000  B 
  B192     1.0000 0.76751  0.81558  0.50000  Biso   1.000  B 
  B193     1.0000 0.81563  0.76751  0.50000  Biso   1.000  B 
  B194     1.0000 0.86954  0.77872  0.50000  Biso   1.000  B 
  B195     1.0000 0.77872  0.86949  0.50000  Biso   1.000  B 
  B196     1.0000 0.67046  0.90470  0.50000  Biso   1.000  B 
  B197     1.0000 0.65360  0.84639  0.50000  Biso   1.000  B 
  B198     1.0000 0.59529  0.82953  0.50000  Biso   1.000  B 
  H91      1.0000 0.73628  0.60223  0.44272  Biso   1.000  H 
  C46      1.0000 0.64102  0.60977  0.47097  Biso   1.000  C 
  H92      1.0000 0.61596  0.62485  0.51656  Biso   1.000  H 
  C47      1.0000 0.62193  0.53879  0.46499  Biso   1.000  C 
  C48      1.0000 0.61648  0.63952  0.40532  Biso   1.000  C 
  C49      1.0000 0.56691  0.59241  0.37553  Biso   1.000  C 
  H93      1.0000 0.57703  0.58070  0.32427  Biso   1.000  H 
  H94      1.0000 0.51788  0.61231  0.38057  Biso   1.000  H 
  C50      1.0000 0.56897  0.53092  0.41363  Biso   1.000  C 
  H95      1.0000 0.60056  0.52399  0.51055  Biso   1.000  H 
  H96      1.0000 0.66558  0.50860  0.45633  Biso   1.000  H 
  H97      1.0000 0.58124  0.49206  0.38081  Biso   1.000  H 
  H98      1.0000 0.51956  0.51830  0.43499  Biso   1.000  H 
  H99      1.0000 0.65972  0.64365  0.37264  Biso   1.000  H 
  H100     1.0000 0.59476  0.68889  0.41071  Biso   1.000  H 
  B199     1.0000 0.34640  0.15360  0.50000  Biso   1.000  B 
  B200     1.0000 0.40471  0.17046  0.50000  Biso   1.000  B 
  B201     1.0000 0.32954  0.09529  0.50000  Biso   1.000  B 
  B202     1.0000 0.29500  0.20500  0.50000  Biso   1.000  B 
  B203     1.0000 0.23249  0.18437  0.50000  Biso   1.000  B 
  N11      1.0000 0.20990  0.11243  0.49053  Biso   1.000  N 
  B204     1.0000 0.13051  0.22128  0.50000  Biso   1.000  B 
  B205     1.0000 0.18442  0.23249  0.50000  Biso   1.000  B 
  B206     1.0000 0.20500  0.29500  0.50000  Biso   1.000  B 
  B207     1.0000 0.26751  0.31558  0.50000  Biso   1.000  B 
  B208     1.0000 0.31563  0.26751  0.50000  Biso   1.000  B 
  B209     1.0000 0.36954  0.27872  0.50000  Biso   1.000  B 
  B210     1.0000 0.27872  0.36949  0.50000  Biso   1.000  B 
  B211     1.0000 0.17046  0.40470  0.50000  Biso   1.000  B 
  B212     1.0000 0.15360  0.34640  0.50000  Biso   1.000  B 
  B213     1.0000 0.09529  0.32954  0.50000  Biso   1.000  B 
  H101     1.0000 0.23615  0.09355  0.45178  Biso   1.000  H 
  C51      1.0000 0.14053  0.09962  0.47673  Biso   1.000  C 
  H102     1.0000 0.11193  0.12234  0.51526  Biso   1.000  H 
  C52      1.0000 0.12020  0.02590  0.47457  Biso   1.000  C 
  C53      1.0000 0.12500  0.12296  0.40882  Biso   1.000  C 
  C54      1.0000 0.06992  0.08277  0.38239  Biso   1.000  C 
  H103     1.0000 0.07893  0.07307  0.32980  Biso   1.000  H 
  H104     1.0000 0.02451  0.11289  0.38609  Biso   1.000  H 
  C55      1.0000 0.06462  0.02325  0.42468  Biso   1.000  C 
  H105     1.0000 0.10926  0.00670  0.52040  Biso   1.000  H 
  H106     1.0000 0.16079  0.99630  0.45441  Biso   1.000  H 
  H107     1.0000 0.06842  0.97961  0.39433  Biso   1.000  H 
  H108     1.0000 0.01507  0.02291  0.45020  Biso   1.000  H 
  H109     1.0000 0.16671  0.11635  0.37523  Biso   1.000  H 
  H110     1.0000 0.10884  0.17432  0.40763  Biso   1.000  H 
  B214     1.0000 0.34640  0.65360  0.00000  Biso   1.000  B 
  B215     1.0000 0.40471  0.67046  0.00000  Biso   1.000  B 
  B216     1.0000 0.32954  0.59529  0.00000  Biso   1.000  B 
  B217     1.0000 0.29500  0.70500  0.00000  Biso   1.000  B 
  B218     1.0000 0.23249  0.68437  0.00000  Biso   1.000  B 
  N12      1.0000 0.21323  0.61593  0.97689  Biso   1.000  N 
  B219     1.0000 0.13051  0.72128  0.00000  Biso   1.000  B 
  B220     1.0000 0.18442  0.73248  0.00000  Biso   1.000  B 
  B221     1.0000 0.20500  0.79499  0.00000  Biso   1.000  B 
  B222     1.0000 0.26751  0.81558  0.00000  Biso   1.000  B 
  B223     1.0000 0.31563  0.76751  0.00000  Biso   1.000  B 
  B224     1.0000 0.36954  0.77872  0.00000  Biso   1.000  B 
  B225     1.0000 0.27872  0.86949  0.00000  Biso   1.000  B 
  B226     1.0000 0.17046  0.90470  0.00000  Biso   1.000  B 
  B227     1.0000 0.15360  0.84639  0.00000  Biso   1.000  B 
  B228     1.0000 0.09529  0.82953  0.00000  Biso   1.000  B 
  H111     1.0000 0.23584  0.60547  0.93294  Biso   1.000  H 
  C56      1.0000 0.14415  0.59613  0.96945  Biso   1.000  C 
  H112     1.0000 0.11646  0.61420  0.01107  Biso   1.000  H 
  C57      1.0000 0.12855  0.52320  0.96297  Biso   1.000  C 
  C58      1.0000 0.11739  0.62315  0.90567  Biso   1.000  C 
  C59      1.0000 0.06375  0.57876  0.88312  Biso   1.000  C 
  H113     1.0000 0.06561  0.57560  0.82964  Biso   1.000  H 
  H114     1.0000 0.01649  0.59868  0.89786  Biso   1.000  H 
  C60      1.0000 0.07160  0.51458  0.91471  Biso   1.000  C 
  H115     1.0000 0.11050  0.50597  0.00804  Biso   1.000  H 
  H116     1.0000 0.17230  0.49577  0.95251  Biso   1.000  H 
  H117     1.0000 0.07004  0.47715  0.87900  Biso   1.000  H 
  H118     1.0000 0.02766  0.50693  0.94449  Biso   1.000  H 
  H119     1.0000 0.15431  0.61836  0.86751  Biso   1.000  H 
  H120     1.0000 0.10312  0.67568  0.90791  Biso   1.000  H 
  B229     1.0000 0.84640  0.84640  0.00000  Biso   1.000  B 
  B230     1.0000 0.90471  0.82954  0.00000  Biso   1.000  B 
  B231     1.0000 0.82954  0.90471  0.00000  Biso   1.000  B 
  B232     1.0000 0.79500  0.79500  0.00000  Biso   1.000  B 
  B233     1.0000 0.73249  0.81563  0.00000  Biso   1.000  B 
  N13      1.0000 0.71403  0.86769  0.94645  Biso   1.000  N 
  B234     1.0000 0.63051  0.77872  0.00000  Biso   1.000  B 
  B235     1.0000 0.68442  0.76752  0.00000  Biso   1.000  B 
  B236     1.0000 0.70500  0.70501  0.00000  Biso   1.000  B 
  B237     1.0000 0.76751  0.68442  0.00000  Biso   1.000  B 
  B238     1.0000 0.81563  0.73249  0.00000  Biso   1.000  B 
  B239     1.0000 0.86954  0.72128  0.00000  Biso   1.000  B 
  B240     1.0000 0.77872  0.63051  0.00000  Biso   1.000  B 
  B241     1.0000 0.67046  0.59530  0.00000  Biso   1.000  B 
  B242     1.0000 0.65360  0.65361  0.00000  Biso   1.000  B 
  B243     1.0000 0.59529  0.67047  0.00000  Biso   1.000  B 
  H121     1.0000 0.75561  0.87925  0.92038  Biso   1.000  H 
  C61      1.0000 0.66763  0.84039  0.89335  Biso   1.000  C 
  H122     1.0000 0.61660  0.83758  0.91069  Biso   1.000  H 
  C62      1.0000 0.67509  0.77427  0.85989  Biso   1.000  C 
  C63      1.0000 0.67390  0.88157  0.83684  Biso   1.000  C 
  C64      1.0000 0.64907  0.85054  0.77955  Biso   1.000  C 
  H123     1.0000 0.66192  0.87601  0.73392  Biso   1.000  H 
  H124     1.0000 0.59928  0.85723  0.78488  Biso   1.000  H 
  C65      1.0000 0.66512  0.78392  0.78741  Biso   1.000  C 
  H125     1.0000 0.63792  0.74057  0.87619  Biso   1.000  H 
  H126     1.0000 0.72417  0.75681  0.87163  Biso   1.000  H 
  H127     1.0000 0.70495  0.78112  0.75339  Biso   1.000  H 
  H128     1.0000 0.62493  0.75171  0.77197  Biso   1.000  H 
  H129     1.0000 0.72606  0.88754  0.82743  Biso   1.000  H 
  H130     1.0000 0.64680  0.92654  0.84876  Biso   1.000  H 
  B244     1.0000 0.84640  0.34640  0.50000  Biso   1.000  B 
  B245     1.0000 0.90471  0.32954  0.50000  Biso   1.000  B 
  B246     1.0000 0.82954  0.40471  0.50000  Biso   1.000  B 
  B247     1.0000 0.79500  0.29500  0.50000  Biso   1.000  B 
  B248     1.0000 0.73249  0.31563  0.50000  Biso   1.000  B 
  N14      1.0000 0.71684  0.36810  0.44813  Biso   1.000  N 
  B249     1.0000 0.63051  0.27872  0.50000  Biso   1.000  B 
  B250     1.0000 0.68442  0.26751  0.50000  Biso   1.000  B 
  B251     1.0000 0.70500  0.20500  0.50000  Biso   1.000  B 
  B252     1.0000 0.76751  0.18442  0.50000  Biso   1.000  B 
  B253     1.0000 0.81563  0.23249  0.50000  Biso   1.000  B 
  B254     1.0000 0.86954  0.22128  0.50000  Biso   1.000  B 
  B255     1.0000 0.77872  0.13051  0.50000  Biso   1.000  B 
  B256     1.0000 0.67046  0.09530  0.50000  Biso   1.000  B 
  B257     1.0000 0.65360  0.15360  0.50000  Biso   1.000  B 
  B258     1.0000 0.59529  0.17046  0.50000  Biso   1.000  B 
  H131     1.0000 0.75820  0.37504  0.41975  Biso   1.000  H 
  C66      1.0000 0.66540  0.34324  0.39911  Biso   1.000  C 
  H132     1.0000 0.61553  0.35150  0.41828  Biso   1.000  H 
  C67      1.0000 0.67480  0.27409  0.37091  Biso   1.000  C 
  C68      1.0000 0.67013  0.38067  0.33983  Biso   1.000  C 
  C69      1.0000 0.64936  0.34371  0.28133  Biso   1.000  C 
  H133     1.0000 0.67294  0.35886  0.23669  Biso   1.000  H 
  H134     1.0000 0.60057  0.35579  0.27649  Biso   1.000  H 
  C70      1.0000 0.66204  0.27498  0.29885  Biso   1.000  C 
  H135     1.0000 0.64281  0.23308  0.38996  Biso   1.000  H 
  H136     1.0000 0.72554  0.25802  0.37820  Biso   1.000  H 
  H137     1.0000 0.70440  0.26582  0.27183  Biso   1.000  H 
  H138     1.0000 0.62600  0.24194  0.28021  Biso   1.000  H 
  H139     1.0000 0.72034  0.38949  0.33062  Biso   1.000  H 
  H140     1.0000 0.64143  0.42440  0.34516  Biso   1.000  H 
  B259     1.0000 0.34640  0.84640  0.50000  Biso   1.000  B 
  B260     1.0000 0.40471  0.82954  0.50000  Biso   1.000  B 
  B261     1.0000 0.32954  0.90471  0.50000  Biso   1.000  B 
  B262     1.0000 0.29500  0.79500  0.50000  Biso   1.000  B 
  B263     1.0000 0.23249  0.81563  0.50000  Biso   1.000  B 
  N15      1.0000 0.21616  0.87319  0.45364  Biso   1.000  N 
  B264     1.0000 0.13051  0.77872  0.50000  Biso   1.000  B 
  B265     1.0000 0.18442  0.76752  0.50000  Biso   1.000  B 
  B266     1.0000 0.20500  0.70501  0.50000  Biso   1.000  B 
  B267     1.0000 0.26751  0.68442  0.50000  Biso   1.000  B 
  B268     1.0000 0.31563  0.73249  0.50000  Biso   1.000  B 
  B269     1.0000 0.36954  0.72128  0.50000  Biso   1.000  B 
  B270     1.0000 0.27872  0.63051  0.50000  Biso   1.000  B 
  B271     1.0000 0.17046  0.59530  0.50000  Biso   1.000  B 
  B272     1.0000 0.15360  0.65361  0.50000  Biso   1.000  B 
  B273     1.0000 0.09529  0.67047  0.50000  Biso   1.000  B 
  H141     1.0000 0.25725  0.87779  0.42522  Biso   1.000  H 
  C71      1.0000 0.16691  0.84887  0.40426  Biso   1.000  C 
  H142     1.0000 0.11688  0.84953  0.42296  Biso   1.000  H 
  C72      1.0000 0.18323  0.78358  0.37057  Biso   1.000  C 
  C73      1.0000 0.17389  0.88683  0.34361  Biso   1.000  C 
  C74      1.0000 0.14279  0.85111  0.28926  Biso   1.000  C 
  H143     1.0000 0.15996  0.86652  0.24075  Biso   1.000  H 
  H144     1.0000 0.09306  0.86423  0.29772  Biso   1.000  H 
  C75      1.0000 0.15941  0.78222  0.30190  Biso   1.000  C 
  H145     1.0000 0.15929  0.74076  0.39267  Biso   1.000  H 
  H146     1.0000 0.23615  0.77766  0.37038  Biso   1.000  H 
  H147     1.0000 0.19636  0.76347  0.26993  Biso   1.000  H 
  H148     1.0000 0.11757  0.75062  0.29705  Biso   1.000  H 
  H149     1.0000 0.22677  0.89224  0.33344  Biso   1.000  H 
  H150     1.0000 0.14924  0.93095  0.35442  Biso   1.000  H 
  B274     1.0000 0.34640  0.34640  0.00000  Biso   1.000  B 
  B275     1.0000 0.40471  0.32954  0.00000  Biso   1.000  B 
  B276     1.0000 0.32954  0.40471  0.00000  Biso   1.000  B 
  B277     1.0000 0.29500  0.29500  0.00000  Biso   1.000  B 
  B278     1.0000 0.23249  0.31563  0.00000  Biso   1.000  B 
  N16      1.0000 0.21747  0.36684  0.94786  Biso   1.000  N 
  B279     1.0000 0.13051  0.27872  0.00000  Biso   1.000  B 
  B280     1.0000 0.18442  0.26751  0.00000  Biso   1.000  B 
  B281     1.0000 0.20500  0.20500  0.00000  Biso   1.000  B 
  B282     1.0000 0.26751  0.18442  0.00000  Biso   1.000  B 
  B283     1.0000 0.31563  0.23249  0.00000  Biso   1.000  B 
  B284     1.0000 0.36954  0.22128  0.00000  Biso   1.000  B 
  B285     1.0000 0.27872  0.13051  0.00000  Biso   1.000  B 
  B286     1.0000 0.17046  0.09530  0.00000  Biso   1.000  B 
  B287     1.0000 0.15360  0.15360  0.00000  Biso   1.000  B 
  B288     1.0000 0.09529  0.17046  0.00000  Biso   1.000  B 
  H151     1.0000 0.25888  0.37749  0.92159  Biso   1.000  H 
  C76      1.0000 0.17131  0.34140  0.89706  Biso   1.000  C 
  H152     1.0000 0.12231  0.34086  0.91847  Biso   1.000  H 
  C77      1.0000 0.18580  0.27523  0.86811  Biso   1.000  C 
  C78      1.0000 0.17008  0.38265  0.84046  Biso   1.000  C 
  C79      1.0000 0.15126  0.34937  0.78117  Biso   1.000  C 
  H153     1.0000 0.16675  0.37601  0.73777  Biso   1.000  H 
  H154     1.0000 0.10180  0.34805  0.78043  Biso   1.000  H 
  C80      1.0000 0.17542  0.28177  0.79268  Biso   1.000  C 
  H155     1.0000 0.15168  0.23495  0.88421  Biso   1.000  H 
  H156     1.0000 0.23529  0.25995  0.87856  Biso   1.000  H 
  H157     1.0000 0.22215  0.27842  0.76856  Biso   1.000  H 
  H158     1.0000 0.13999  0.24396  0.77662  Biso   1.000  H 
  H159     1.0000 0.22246  0.39203  0.83185  Biso   1.000  H 
  H160     1.0000 0.14282  0.42331  0.85113  Biso   1.000  H 
  B289     1.0000 0.00000  0.84640  0.15360  Biso   1.000  B 
  B290     1.0000 0.00000  0.90471  0.17046  Biso   1.000  B 
  B291     1.0000 0.00000  0.82954  0.09529  Biso   1.000  B 
  B292     1.0000 0.00000  0.79500  0.20500  Biso   1.000  B 
  B293     1.0000 0.00000  0.73249  0.18437  Biso   1.000  B 
  N17      1.0000 0.98798  0.71125  0.11316  Biso   1.000  N 
  B294     1.0000 0.00000  0.63051  0.22128  Biso   1.000  B 
  B295     1.0000 0.00000  0.68442  0.23249  Biso   1.000  B 
  B296     1.0000 0.00000  0.70500  0.29500  Biso   1.000  B 
  B297     1.0000 0.00000  0.76751  0.31558  Biso   1.000  B 
  B298     1.0000 0.00000  0.81563  0.26751  Biso   1.000  B 
  B299     1.0000 0.00000  0.86954  0.27872  Biso   1.000  B 
  B300     1.0000 0.00000  0.77872  0.36949  Biso   1.000  B 
  B301     1.0000 0.00000  0.67046  0.40470  Biso   1.000  B 
  B302     1.0000 0.00000  0.65360  0.34640  Biso   1.000  B 
  B303     1.0000 0.00000  0.59529  0.32954  Biso   1.000  B 
  H161     1.0000 0.94948  0.73874  0.09498  Biso   1.000  H 
  C81      1.0000 0.96874  0.64335  0.10059  Biso   1.000  C 
  H162     1.0000 0.00188  0.60696  0.12402  Biso   1.000  H 
  C82      1.0000 0.96674  0.62507  0.02938  Biso   1.000  C 
  C83      1.0000 0.90006  0.63122  0.12612  Biso   1.000  C 
  C84      1.0000 0.87850  0.57554  0.08566  Biso   1.000  C 
  H163     1.0000 0.82638  0.57804  0.07481  Biso   1.000  H 
  H164     1.0000 0.88833  0.53365  0.11767  Biso   1.000  H 
  C85      1.0000 0.91983  0.56856  0.02596  Biso   1.000  C 
  H165     1.0000 0.01417  0.60875  0.01125  Biso   1.000  H 
  H166     1.0000 0.95020  0.66637  0.00028  Biso   1.000  H 
  H167     1.0000 0.88827  0.56860  0.98381  Biso   1.000  H 
  H168     1.0000 0.94609  0.52107  0.02500  Biso   1.000  H 
  H169     1.0000 0.86894  0.67293  0.11245  Biso   1.000  H 
  H170     1.0000 0.89510  0.61995  0.17945  Biso   1.000  H 
  B304     1.0000 0.00000  0.34640  0.65360  Biso   1.000  B 
  B305     1.0000 0.00000  0.40471  0.67046  Biso   1.000  B 
  B306     1.0000 0.00000  0.32954  0.59529  Biso   1.000  B 
  B307     1.0000 0.00000  0.29500  0.70500  Biso   1.000  B 
  B308     1.0000 0.00000  0.23249  0.68437  Biso   1.000  B 
  N18      1.0000 0.97937  0.21279  0.61483  Biso   1.000  N 
  B309     1.0000 0.00000  0.13051  0.72128  Biso   1.000  B 
  B310     1.0000 0.00000  0.18442  0.73248  Biso   1.000  B 
  B311     1.0000 0.00000  0.20500  0.79499  Biso   1.000  B 
  B312     1.0000 0.00000  0.26751  0.81558  Biso   1.000  B 
  B313     1.0000 0.00000  0.31563  0.76751  Biso   1.000  B 
  B314     1.0000 0.00000  0.36954  0.77872  Biso   1.000  B 
  B315     1.0000 0.00000  0.27872  0.86949  Biso   1.000  B 
  B316     1.0000 0.00000  0.17046  0.90470  Biso   1.000  B 
  B317     1.0000 0.00000  0.15360  0.84639  Biso   1.000  B 
  B318     1.0000 0.00000  0.09529  0.82953  Biso   1.000  B 
  H171     1.0000 0.93353  0.23267  0.60639  Biso   1.000  H 
  C86      1.0000 0.97506  0.14192  0.60103  Biso   1.000  C 
  H172     1.0000 0.01859  0.11950  0.62347  Biso   1.000  H 
  C87      1.0000 0.96816  0.12417  0.52987  Biso   1.000  C 
  C88      1.0000 0.91285  0.11360  0.63071  Biso   1.000  C 
  C89      1.0000 0.89934  0.05539  0.58972  Biso   1.000  C 
  H173     1.0000 0.84676  0.04857  0.58518  Biso   1.000  H 
  H174     1.0000 0.91856  0.01061  0.60799  Biso   1.000  H 
  C90      1.0000 0.91445  0.07423  0.52085  Biso   1.000  C 
  H175     1.0000 0.01296  0.10351  0.51585  Biso   1.000  H 
  H176     1.0000 0.96062  0.16736  0.49829  Biso   1.000  H 
  H177     1.0000 0.87468  0.09970  0.50302  Biso   1.000  H 
  H178     1.0000 0.92454  0.03016  0.49078  Biso   1.000  H 
  H179     1.0000 0.87312  0.14899  0.62511  Biso   1.000  H 
  H180     1.0000 0.91484  0.09753  0.68232  Biso   1.000  H 
  B319     1.0000 0.50000  0.84640  0.65360  Biso   1.000  B 
  B320     1.0000 0.50000  0.90471  0.67046  Biso   1.000  B 
  B321     1.0000 0.50000  0.82954  0.59529  Biso   1.000  B 
  B322     1.0000 0.50000  0.79500  0.70500  Biso   1.000  B 
  B323     1.0000 0.50000  0.73249  0.68437  Biso   1.000  B 
  N19      1.0000 0.48984  0.71494  0.61270  Biso   1.000  N 
  B324     1.0000 0.50000  0.63051  0.72128  Biso   1.000  B 
  B325     1.0000 0.50000  0.68442  0.73248  Biso   1.000  B 
  B326     1.0000 0.50000  0.70500  0.79499  Biso   1.000  B 
  B327     1.0000 0.50000  0.76751  0.81558  Biso   1.000  B 
  B328     1.0000 0.50000  0.81563  0.76751  Biso   1.000  B 
  B329     1.0000 0.50000  0.86954  0.77872  Biso   1.000  B 
  B330     1.0000 0.50000  0.77872  0.86949  Biso   1.000  B 
  B331     1.0000 0.50000  0.67046  0.90470  Biso   1.000  B 
  B332     1.0000 0.50000  0.65360  0.84639  Biso   1.000  B 
  B333     1.0000 0.50000  0.59529  0.82953  Biso   1.000  B 
  H181     1.0000 0.44600  0.73668  0.59884  Biso   1.000  H 
  C91      1.0000 0.47749  0.64479  0.60094  Biso   1.000  C 
  H182     1.0000 0.51828  0.61638  0.62302  Biso   1.000  H 
  C92      1.0000 0.47563  0.62290  0.52760  Biso   1.000  C 
  C93      1.0000 0.40867  0.62250  0.62645  Biso   1.000  C 
  C94      1.0000 0.38858  0.56443  0.58824  Biso   1.000  C 
  H183     1.0000 0.33623  0.56793  0.58355  Biso   1.000  H 
  H184     1.0000 0.40243  0.51813  0.61152  Biso   1.000  H 
  C95      1.0000 0.42196  0.56988  0.52348  Biso   1.000  C 
  H185     1.0000 0.52067  0.60082  0.51718  Biso   1.000  H 
  H186     1.0000 0.46577  0.66221  0.49174  Biso   1.000  H 
  H187     1.0000 0.38644  0.57941  0.48604  Biso   1.000  H 
  H188     1.0000 0.44057  0.52154  0.51381  Biso   1.000  H 
  H189     1.0000 0.37455  0.66389  0.61801  Biso   1.000  H 
  H190     1.0000 0.40857  0.60927  0.67751  Biso   1.000  H 
  B334     1.0000 0.50000  0.34640  0.15360  Biso   1.000  B 
  B335     1.0000 0.50000  0.40471  0.17046  Biso   1.000  B 
  B336     1.0000 0.50000  0.32954  0.09529  Biso   1.000  B 
  B337     1.0000 0.50000  0.29500  0.20500  Biso   1.000  B 
  B338     1.0000 0.50000  0.23249  0.18437  Biso   1.000  B 
  N20      1.0000 0.48332  0.21251  0.11603  Biso   1.000  N 
  B339     1.0000 0.50000  0.13051  0.22128  Biso   1.000  B 
  B340     1.0000 0.50000  0.18442  0.23249  Biso   1.000  B 
  B341     1.0000 0.50000  0.20500  0.29500  Biso   1.000  B 
  B342     1.0000 0.50000  0.26751  0.31558  Biso   1.000  B 
  B343     1.0000 0.50000  0.31563  0.26751  Biso   1.000  B 
  B344     1.0000 0.50000  0.36954  0.27872  Biso   1.000  B 
  B345     1.0000 0.50000  0.27872  0.36949  Biso   1.000  B 
  B346     1.0000 0.50000  0.17046  0.40470  Biso   1.000  B 
  B347     1.0000 0.50000  0.15360  0.34640  Biso   1.000  B 
  B348     1.0000 0.50000  0.09529  0.32954  Biso   1.000  B 
  H191     1.0000 0.43869  0.23452  0.10407  Biso   1.000  H 
  C96      1.0000 0.47011  0.14061  0.10801  Biso   1.000  C 
  H192     1.0000 0.51387  0.11511  0.12786  Biso   1.000  H 
  C97      1.0000 0.47136  0.11957  0.03923  Biso   1.000  C 
  C98      1.0000 0.40502  0.11742  0.13635  Biso   1.000  C 
  C99      1.0000 0.37820  0.06365  0.09492  Biso   1.000  C 
  H193     1.0000 0.32849  0.07395  0.08038  Biso   1.000  H 
  H194     1.0000 0.38230  0.01898  0.12305  Biso   1.000  H 
  C100     1.0000 0.41856  0.06427  0.03494  Biso   1.000  C 
  H195     1.0000 0.51799  0.09868  0.02922  Biso   1.000  H 
  H196     1.0000 0.46756  0.16434  0.00849  Biso   1.000  H 
  H197     1.0000 0.39201  0.06620  0.98770  Biso   1.000  H 
  H198     1.0000 0.44212  0.01629  0.03720  Biso   1.000  H 
  H199     1.0000 0.36994  0.15814  0.13270  Biso   1.000  H 
  H200     1.0000 0.40755  0.10492  0.18908  Biso   1.000  H 
  B349     1.0000 0.00000  0.84640  0.84640  Biso   1.000  B 
  B350     1.0000 0.00000  0.90471  0.82954  Biso   1.000  B 
  B351     1.0000 0.00000  0.82954  0.90471  Biso   1.000  B 
  B352     1.0000 0.00000  0.79500  0.79500  Biso   1.000  B 
  B353     1.0000 0.00000  0.73249  0.81563  Biso   1.000  B 
  N21      1.0000 0.95503  0.71222  0.87102  Biso   1.000  N 
  B354     1.0000 0.00000  0.63051  0.77872  Biso   1.000  B 
  B355     1.0000 0.00000  0.68442  0.76752  Biso   1.000  B 
  B356     1.0000 0.00000  0.70500  0.70501  Biso   1.000  B 
  B357     1.0000 0.00000  0.76751  0.68442  Biso   1.000  B 
  B358     1.0000 0.00000  0.81563  0.73249  Biso   1.000  B 
  B359     1.0000 0.00000  0.86954  0.72128  Biso   1.000  B 
  B360     1.0000 0.00000  0.77872  0.63051  Biso   1.000  B 
  B361     1.0000 0.00000  0.67046  0.59530  Biso   1.000  B 
  B362     1.0000 0.00000  0.65360  0.65361  Biso   1.000  B 
  B363     1.0000 0.00000  0.59529  0.67047  Biso   1.000  B 
  H201     1.0000 0.93547  0.74823  0.89998  Biso   1.000  H 
  C101     1.0000 0.90034  0.67276  0.84642  Biso   1.000  C 
  H202     1.0000 0.91717  0.62250  0.84291  Biso   1.000  H 
  C102     1.0000 0.86841  0.69344  0.78294  Biso   1.000  C 
  C103     1.0000 0.84413  0.67531  0.88600  Biso   1.000  C 
  C104     1.0000 0.78538  0.65024  0.85254  Biso   1.000  C 
  H203     1.0000 0.73562  0.65996  0.86727  Biso   1.000  H 
  H204     1.0000 0.79177  0.59909  0.85864  Biso   1.000  H 
  C105     1.0000 0.79615  0.67193  0.78455  Biso   1.000  C 
  H205     1.0000 0.88749  0.66856  0.74149  Biso   1.000  H 
  H206     1.0000 0.87451  0.74639  0.78097  Biso   1.000  H 
  H207     1.0000 0.76448  0.71579  0.78111  Biso   1.000  H 
  H208     1.0000 0.78239  0.63543  0.75055  Biso   1.000  H 
  H209     1.0000 0.83539  0.72693  0.89206  Biso   1.000  H 
  H210     1.0000 0.85410  0.64780  0.92950  Biso   1.000  H 
  B364     1.0000 0.00000  0.34640  0.34640  Biso   1.000  B 
  B365     1.0000 0.00000  0.40471  0.32954  Biso   1.000  B 
  B366     1.0000 0.00000  0.32954  0.40471  Biso   1.000  B 
  B367     1.0000 0.00000  0.29500  0.29500  Biso   1.000  B 
  B368     1.0000 0.00000  0.23249  0.31563  Biso   1.000  B 
  N22      1.0000 0.94939  0.21391  0.36833  Biso   1.000  N 
  B369     1.0000 0.00000  0.13051  0.27872  Biso   1.000  B 
  B370     1.0000 0.00000  0.18442  0.26751  Biso   1.000  B 
  B371     1.0000 0.00000  0.20500  0.20500  Biso   1.000  B 
  B372     1.0000 0.00000  0.26751  0.18442  Biso   1.000  B 
  B373     1.0000 0.00000  0.31563  0.23249  Biso   1.000  B 
  B374     1.0000 0.00000  0.36954  0.22128  Biso   1.000  B 
  B375     1.0000 0.00000  0.27872  0.13051  Biso   1.000  B 
  B376     1.0000 0.00000  0.17046  0.09530  Biso   1.000  B 
  B377     1.0000 0.00000  0.15360  0.15360  Biso   1.000  B 
  B378     1.0000 0.00000  0.09529  0.17046  Biso   1.000  B 
  H211     1.0000 0.92655  0.25351  0.38942  Biso   1.000  H 
  C106     1.0000 0.89457  0.17852  0.33462  Biso   1.000  C 
  H212     1.0000 0.91175  0.12779  0.32501  Biso   1.000  H 
  C107     1.0000 0.85758  0.20346  0.27521  Biso   1.000  C 
  C108     1.0000 0.84024  0.17318  0.37925  Biso   1.000  C 
  C109     1.0000 0.78522  0.14835  0.34737  Biso   1.000  C 
  H213     1.0000 0.73819  0.16120  0.37147  Biso   1.000  H 
  H214     1.0000 0.79391  0.09753  0.35530  Biso   1.000  H 
  C110     1.0000 0.79171  0.16578  0.27877  Biso   1.000  C 
  H215     1.0000 0.88346  0.19564  0.22893  Biso   1.000  H 
  H216     1.0000 0.84952  0.25495  0.28299  Biso   1.000  H 
  H217     1.0000 0.74632  0.18229  0.25413  Biso   1.000  H 
  H218     1.0000 0.80484  0.11869  0.25482  Biso   1.000  H 
  H219     1.0000 0.82713  0.22326  0.39001  Biso   1.000  H 
  H220     1.0000 0.85417  0.14861  0.42378  Biso   1.000  H 
  B379     1.0000 0.50000  0.84640  0.34640  Biso   1.000  B 
  B380     1.0000 0.50000  0.90471  0.32954  Biso   1.000  B 
  B381     1.0000 0.50000  0.82954  0.40471  Biso   1.000  B 
  B382     1.0000 0.50000  0.79500  0.29500  Biso   1.000  B 
  B383     1.0000 0.50000  0.73249  0.31563  Biso   1.000  B 
  N23      1.0000 0.45458  0.71580  0.37058  Biso   1.000  N 
  B384     1.0000 0.50000  0.63051  0.27872  Biso   1.000  B 
  B385     1.0000 0.50000  0.68442  0.26751  Biso   1.000  B 
  B386     1.0000 0.50000  0.70500  0.20500  Biso   1.000  B 
  B387     1.0000 0.50000  0.76751  0.18442  Biso   1.000  B 
  B388     1.0000 0.50000  0.81563  0.23249  Biso   1.000  B 
  B389     1.0000 0.50000  0.86954  0.22128  Biso   1.000  B 
  B390     1.0000 0.50000  0.77872  0.13051  Biso   1.000  B 
  B391     1.0000 0.50000  0.67046  0.09530  Biso   1.000  B 
  B392     1.0000 0.50000  0.65360  0.15360  Biso   1.000  B 
  B393     1.0000 0.50000  0.59529  0.17046  Biso   1.000  B 
  H221     1.0000 0.43110  0.75504  0.39048  Biso   1.000  H 
  C111     1.0000 0.40062  0.67104  0.34632  Biso   1.000  C 
  H222     1.0000 0.41611  0.61971  0.34920  Biso   1.000  H 
  C112     1.0000 0.37277  0.68538  0.28098  Biso   1.000  C 
  C113     1.0000 0.34202  0.67910  0.38267  Biso   1.000  C 
  C114     1.0000 0.28431  0.65498  0.34741  Biso   1.000  C 
  H223     1.0000 0.23963  0.67347  0.37015  Biso   1.000  H 
  H224     1.0000 0.28371  0.60441  0.35103  Biso   1.000  H 
  C115     1.0000 0.30094  0.67651  0.28111  Biso   1.000  C 
  H225     1.0000 0.39193  0.65137  0.24369  Biso   1.000  H 
  H226     1.0000 0.38640  0.73600  0.26874  Biso   1.000  H 
  H227     1.0000 0.28132  0.72179  0.27318  Biso   1.000  H 
  H228     1.0000 0.28568  0.64505  0.24052  Biso   1.000  H 
  H229     1.0000 0.33379  0.73109  0.38923  Biso   1.000  H 
  H230     1.0000 0.35288  0.65140  0.42541  Biso   1.000  H 
  B394     1.0000 0.50000  0.34640  0.84640  Biso   1.000  B 
  B395     1.0000 0.50000  0.40471  0.82954  Biso   1.000  B 
  B396     1.0000 0.50000  0.32954  0.90471  Biso   1.000  B 
  B397     1.0000 0.50000  0.29500  0.79500  Biso   1.000  B 
  B398     1.0000 0.50000  0.23249  0.81563  Biso   1.000  B 
  N24      1.0000 0.45195  0.21533  0.87038  Biso   1.000  N 
  B399     1.0000 0.50000  0.13051  0.77872  Biso   1.000  B 
  B400     1.0000 0.50000  0.18442  0.76752  Biso   1.000  B 
  B401     1.0000 0.50000  0.20500  0.70501  Biso   1.000  B 
  B402     1.0000 0.50000  0.26751  0.68442  Biso   1.000  B 
  B403     1.0000 0.50000  0.31563  0.73249  Biso   1.000  B 
  B404     1.0000 0.50000  0.36954  0.72128  Biso   1.000  B 
  B405     1.0000 0.50000  0.27872  0.63051  Biso   1.000  B 
  B406     1.0000 0.50000  0.17046  0.59530  Biso   1.000  B 
  B407     1.0000 0.50000  0.15360  0.65361  Biso   1.000  B 
  B408     1.0000 0.50000  0.09529  0.67047  Biso   1.000  B 
  H231     1.0000 0.42721  0.25651  0.88519  Biso   1.000  H 
  C116     1.0000 0.40004  0.17328  0.84254  Biso   1.000  C 
  H232     1.0000 0.41570  0.12182  0.83616  Biso   1.000  H 
  C117     1.0000 0.36221  0.19898  0.78095  Biso   1.000  C 
  C118     1.0000 0.34647  0.17063  0.88772  Biso   1.000  C 
  C119     1.0000 0.29228  0.14176  0.85357  Biso   1.000  C 
  H233     1.0000 0.24212  0.14701  0.87238  Biso   1.000  H 
  H234     1.0000 0.30617  0.09346  0.85738  Biso   1.000  H 
  C120     1.0000 0.29992  0.16227  0.78208  Biso   1.000  C 
  H235     1.0000 0.38231  0.18763  0.73377  Biso   1.000  H 
  H236     1.0000 0.34943  0.25145  0.78918  Biso   1.000  H 
  H237     1.0000 0.25499  0.18660  0.76838  Biso   1.000  H 
  H238     1.0000 0.30491  0.11934  0.74948  Biso   1.000  H 
  H239     1.0000 0.33415  0.22069  0.89412  Biso   1.000  H 
  H240     1.0000 0.36070  0.14432  0.93190  Biso   1.000  H 
