data_image0
_cell_length_a       20.7004
_cell_length_b       20.7004
_cell_length_c       20.7004
_cell_angle_alpha    90
_cell_angle_beta     90
_cell_angle_gamma    90

_symmetry_space_group_name_H-M    "P 1"
_symmetry_int_tables_number       1

loop_
  _symmetry_equiv_pos_as_xyz
  'x, y, z'

loop_
  _atom_site_label
  _atom_site_occupancy
  _atom_site_fract_x
  _atom_site_fract_y
  _atom_site_fract_z
  _atom_site_thermal_displace_type
  _atom_site_B_iso_or_equiv
  _atom_site_type_symbol
  B1       1.0000 0.11989  0.00000  0.00000  Biso   1.000  B 
  B2       1.0000 0.11989  0.50000  0.50000  Biso   1.000  B 
  B3       1.0000 0.61989  0.00000  0.50000  Biso   1.000  B 
  B4       1.0000 0.61989  0.50000  0.00000  Biso   1.000  B 
  B5       1.0000 0.88011  0.00000  0.00000  Biso   1.000  B 
  B6       1.0000 0.88011  0.50000  0.50000  Biso   1.000  B 
  B7       1.0000 0.38011  0.00000  0.50000  Biso   1.000  B 
  B8       1.0000 0.38011  0.50000  0.00000  Biso   1.000  B 
  B9       1.0000 0.00000  0.11989  0.00000  Biso   1.000  B 
  B10      1.0000 0.00000  0.61989  0.50000  Biso   1.000  B 
  B11      1.0000 0.50000  0.11989  0.50000  Biso   1.000  B 
  B12      1.0000 0.50000  0.61989  0.00000  Biso   1.000  B 
  B13      1.0000 0.00000  0.88011  0.00000  Biso   1.000  B 
  B14      1.0000 0.00000  0.38011  0.50000  Biso   1.000  B 
  B15      1.0000 0.50000  0.88011  0.50000  Biso   1.000  B 
  B16      1.0000 0.50000  0.38011  0.00000  Biso   1.000  B 
  B17      1.0000 0.00000  0.00000  0.11989  Biso   1.000  B 
  B18      1.0000 0.00000  0.50000  0.61989  Biso   1.000  B 
  B19      1.0000 0.50000  0.00000  0.61989  Biso   1.000  B 
  B20      1.0000 0.50000  0.50000  0.11989  Biso   1.000  B 
  B21      1.0000 0.00000  0.00000  0.88011  Biso   1.000  B 
  B22      1.0000 0.00000  0.50000  0.38011  Biso   1.000  B 
  B23      1.0000 0.50000  0.00000  0.38011  Biso   1.000  B 
  B24      1.0000 0.50000  0.50000  0.88011  Biso   1.000  B 
  B25      1.0000 0.05610  0.44390  0.44390  Biso   1.000  B 
  B26      1.0000 0.55610  0.94390  0.44390  Biso   1.000  B 
  B27      1.0000 0.55610  0.44390  0.94390  Biso   1.000  B 
  B28      1.0000 0.44390  0.05610  0.44390  Biso   1.000  B 
  B29      1.0000 0.44390  0.55610  0.94390  Biso   1.000  B 
  B30      1.0000 0.94390  0.94390  0.05610  Biso   1.000  B 
  B31      1.0000 0.94390  0.44390  0.55610  Biso   1.000  B 
  B32      1.0000 0.05610  0.05610  0.05610  Biso   1.000  B 
  B33      1.0000 0.55610  0.55610  0.05610  Biso   1.000  B 
  B34      1.0000 0.94390  0.05610  0.05610  Biso   1.000  B 
  B35      1.0000 0.94390  0.55610  0.55610  Biso   1.000  B 
  B36      1.0000 0.44390  0.05610  0.55610  Biso   1.000  B 
  B37      1.0000 0.44390  0.55610  0.05610  Biso   1.000  B 
  B38      1.0000 0.05610  0.94390  0.05610  Biso   1.000  B 
  B39      1.0000 0.05610  0.44390  0.55610  Biso   1.000  B 
  B40      1.0000 0.55610  0.94390  0.55610  Biso   1.000  B 
  B41      1.0000 0.55610  0.44390  0.05610  Biso   1.000  B 
  B42      1.0000 0.94390  0.94390  0.94390  Biso   1.000  B 
  B43      1.0000 0.94390  0.44390  0.44390  Biso   1.000  B 
  B44      1.0000 0.44390  0.94390  0.44390  Biso   1.000  B 
  B45      1.0000 0.44390  0.44390  0.94390  Biso   1.000  B 
  B46      1.0000 0.05610  0.05610  0.94390  Biso   1.000  B 
  B47      1.0000 0.05610  0.55610  0.44390  Biso   1.000  B 
  B48      1.0000 0.55610  0.05610  0.44390  Biso   1.000  B 
  B49      1.0000 0.15360  0.00000  0.84640  Biso   1.000  B 
  B50      1.0000 0.17046  0.00000  0.90471  Biso   1.000  B 
  B51      1.0000 0.09529  0.00000  0.82954  Biso   1.000  B 
  B52      1.0000 0.20500  0.00000  0.79500  Biso   1.000  B 
  B53      1.0000 0.18437  0.00000  0.73249  Biso   1.000  B 
  N1       1.0000 0.13226  0.94188  0.71990  Biso   1.000  N 
  B54      1.0000 0.22128  0.00000  0.63051  Biso   1.000  B 
  B55      1.0000 0.23249  0.00000  0.68442  Biso   1.000  B 
  B56      1.0000 0.29500  0.00000  0.70500  Biso   1.000  B 
  B57      1.0000 0.31558  0.00000  0.76751  Biso   1.000  B 
  B58      1.0000 0.26751  0.00000  0.81563  Biso   1.000  B 
  B59      1.0000 0.27872  0.00000  0.86954  Biso   1.000  B 
  B60      1.0000 0.36949  0.00000  0.77872  Biso   1.000  B 
  B61      1.0000 0.40470  0.00000  0.67046  Biso   1.000  B 
  B62      1.0000 0.34640  0.00000  0.65360  Biso   1.000  B 
  B63      1.0000 0.32954  0.00000  0.59529  Biso   1.000  B 
  H1       1.0000 0.09150  0.93664  0.74885  Biso   1.000  H 
  C1       1.0000 0.14453  0.87401  0.69505  Biso   1.000  C 
  H2       1.0000 0.13650  0.84286  0.73702  Biso   1.000  H 
  H3       1.0000 0.19621  0.86827  0.68285  Biso   1.000  H 
  C2       1.0000 0.10357  0.84188  0.63296  Biso   1.000  C 
  H4       1.0000 0.13678  0.83766  0.59197  Biso   1.000  H 
  C3       1.0000 0.03500  0.87140  0.59917  Biso   1.000  C 
  H5       1.0000 0.10020  0.79067  0.64851  Biso   1.000  H 
  H6       1.0000 0.04075  0.91255  0.57580  Biso   1.000  H 
  H7       1.0000 0.00091  0.88571  0.63307  Biso   1.000  H 
  C4       1.0000 0.98542  0.84687  0.54525  Biso   1.000  C 
  C5       1.0000 0.00775  0.79850  0.49639  Biso   1.000  C 
  H8       1.0000 0.96508  0.88840  0.51559  Biso   1.000  H 
  H9       1.0000 0.94244  0.82392  0.56768  Biso   1.000  H 
  H10      1.0000 0.04083  0.82272  0.46234  Biso   1.000  H 
  H11      1.0000 0.96620  0.77893  0.46788  Biso   1.000  H 
  H12      1.0000 0.02937  0.75771  0.52091  Biso   1.000  H 
  B64      1.0000 0.15360  0.50000  0.34640  Biso   1.000  B 
  B65      1.0000 0.17046  0.50000  0.40471  Biso   1.000  B 
  B66      1.0000 0.09529  0.50000  0.32954  Biso   1.000  B 
  B67      1.0000 0.20500  0.50000  0.29500  Biso   1.000  B 
  B68      1.0000 0.18437  0.50000  0.23249  Biso   1.000  B 
  N2       1.0000 0.13174  0.44256  0.22115  Biso   1.000  N 
  B69      1.0000 0.22128  0.50000  0.13051  Biso   1.000  B 
  B70      1.0000 0.23249  0.50000  0.18442  Biso   1.000  B 
  B71      1.0000 0.29500  0.50000  0.20500  Biso   1.000  B 
  B72      1.0000 0.31558  0.50000  0.26751  Biso   1.000  B 
  B73      1.0000 0.26751  0.50000  0.31563  Biso   1.000  B 
  B74      1.0000 0.27872  0.50000  0.36954  Biso   1.000  B 
  B75      1.0000 0.36949  0.50000  0.27872  Biso   1.000  B 
  B76      1.0000 0.40470  0.50000  0.17046  Biso   1.000  B 
  B77      1.0000 0.34640  0.50000  0.15360  Biso   1.000  B 
  B78      1.0000 0.32954  0.50000  0.09529  Biso   1.000  B 
  H13      1.0000 0.11710  0.41981  0.26342  Biso   1.000  H 
  C6       1.0000 0.14906  0.38443  0.18061  Biso   1.000  C 
  H14      1.0000 0.16451  0.34548  0.21493  Biso   1.000  H 
  H15      1.0000 0.19315  0.39526  0.15325  Biso   1.000  H 
  C7       1.0000 0.09941  0.35277  0.12705  Biso   1.000  C 
  H16      1.0000 0.13339  0.34592  0.08892  Biso   1.000  H 
  C8       1.0000 0.02744  0.37584  0.09399  Biso   1.000  C 
  H17      1.0000 0.09632  0.30360  0.14445  Biso   1.000  H 
  H18      1.0000 0.02534  0.42039  0.07037  Biso   1.000  H 
  H19      1.0000 0.99298  0.38215  0.13101  Biso   1.000  H 
  C9       1.0000 0.98249  0.34545  0.03993  Biso   1.000  C 
  C10      1.0000 0.00774  0.28999  0.00101  Biso   1.000  C 
  H20      1.0000 0.96572  0.38012  0.00251  Biso   1.000  H 
  H21      1.0000 0.93829  0.32645  0.06406  Biso   1.000  H 
  H22      1.0000 0.03947  0.30615  0.96159  Biso   1.000  H 
  H23      1.0000 0.96830  0.26294  0.97944  Biso   1.000  H 
  H24      1.0000 0.03478  0.25956  0.03424  Biso   1.000  H 
  B79      1.0000 0.65360  0.00000  0.34640  Biso   1.000  B 
  B80      1.0000 0.67046  0.00000  0.40471  Biso   1.000  B 
  B81      1.0000 0.59529  0.00000  0.32954  Biso   1.000  B 
  B82      1.0000 0.70500  0.00000  0.29500  Biso   1.000  B 
  B83      1.0000 0.68437  0.00000  0.23249  Biso   1.000  B 
  N3       1.0000 0.63228  0.94175  0.22154  Biso   1.000  N 
  B84      1.0000 0.72128  0.00000  0.13051  Biso   1.000  B 
  B85      1.0000 0.73248  0.00000  0.18442  Biso   1.000  B 
  B86      1.0000 0.79499  0.00000  0.20500  Biso   1.000  B 
  B87      1.0000 0.81558  0.00000  0.26751  Biso   1.000  B 
  B88      1.0000 0.76751  0.00000  0.31563  Biso   1.000  B 
  B89      1.0000 0.77872  0.00000  0.36954  Biso   1.000  B 
  B90      1.0000 0.86949  0.00000  0.27872  Biso   1.000  B 
  B91      1.0000 0.90470  0.00000  0.17046  Biso   1.000  B 
  B92      1.0000 0.84639  0.00000  0.15360  Biso   1.000  B 
  B93      1.0000 0.82953  0.00000  0.09529  Biso   1.000  B 
  H25      1.0000 0.61793  0.91760  0.26330  Biso   1.000  H 
  C11      1.0000 0.64892  0.88561  0.17658  Biso   1.000  C 
  H26      1.0000 0.66705  0.84563  0.20836  Biso   1.000  H 
  H27      1.0000 0.68976  0.89910  0.14702  Biso   1.000  H 
  C12      1.0000 0.59880  0.85107  0.12559  Biso   1.000  C 
  H28      1.0000 0.63181  0.84420  0.08730  Biso   1.000  H 
  C13      1.0000 0.52628  0.87556  0.09275  Biso   1.000  C 
  H29      1.0000 0.59728  0.80227  0.14385  Biso   1.000  H 
  H30      1.0000 0.52412  0.92090  0.06881  Biso   1.000  H 
  H31      1.0000 0.49254  0.88188  0.13025  Biso   1.000  H 
  C14      1.0000 0.48088  0.84391  0.03988  Biso   1.000  C 
  C15      1.0000 0.50884  0.78885  0.00146  Biso   1.000  C 
  H32      1.0000 0.46202  0.87865  0.00294  Biso   1.000  H 
  H33      1.0000 0.43632  0.82433  0.06415  Biso   1.000  H 
  H34      1.0000 0.53945  0.80721  0.96094  Biso   1.000  H 
  H35      1.0000 0.46954  0.75972  0.98104  Biso   1.000  H 
  H36      1.0000 0.53748  0.75865  0.03373  Biso   1.000  H 
  B94      1.0000 0.65360  0.50000  0.84640  Biso   1.000  B 
  B95      1.0000 0.67046  0.50000  0.90471  Biso   1.000  B 
  B96      1.0000 0.59529  0.50000  0.82954  Biso   1.000  B 
  B97      1.0000 0.70500  0.50000  0.79500  Biso   1.000  B 
  B98      1.0000 0.68437  0.50000  0.73249  Biso   1.000  B 
  N4       1.0000 0.61898  0.47775  0.71178  Biso   1.000  N 
  B99      1.0000 0.72128  0.50000  0.63051  Biso   1.000  B 
  B100     1.0000 0.73248  0.50000  0.68442  Biso   1.000  B 
  B101     1.0000 0.79499  0.50000  0.70500  Biso   1.000  B 
  B102     1.0000 0.81558  0.50000  0.76751  Biso   1.000  B 
  B103     1.0000 0.76751  0.50000  0.81563  Biso   1.000  B 
  B104     1.0000 0.77872  0.50000  0.86954  Biso   1.000  B 
  B105     1.0000 0.86949  0.50000  0.77872  Biso   1.000  B 
  B106     1.0000 0.90470  0.50000  0.67046  Biso   1.000  B 
  B107     1.0000 0.84639  0.50000  0.65360  Biso   1.000  B 
  B108     1.0000 0.82953  0.50000  0.59529  Biso   1.000  B 
  H37      1.0000 0.57919  0.50674  0.72096  Biso   1.000  H 
  C16      1.0000 0.61711  0.40587  0.71608  Biso   1.000  C 
  H38      1.0000 0.58564  0.39241  0.75711  Biso   1.000  H 
  H39      1.0000 0.66357  0.38718  0.73367  Biso   1.000  H 
  C17      1.0000 0.61288  0.36120  0.65141  Biso   1.000  C 
  H40      1.0000 0.66126  0.36762  0.63234  Biso   1.000  H 
  C18      1.0000 0.56918  0.38940  0.59595  Biso   1.000  C 
  H41      1.0000 0.60788  0.31109  0.66658  Biso   1.000  H 
  H42      1.0000 0.58645  0.43781  0.59709  Biso   1.000  H 
  H43      1.0000 0.52817  0.38756  0.62250  Biso   1.000  H 
  C19      1.0000 0.55220  0.37774  0.52208  Biso   1.000  C 
  C20      1.0000 0.51479  0.31432  0.50433  Biso   1.000  C 
  H44      1.0000 0.59357  0.38291  0.49525  Biso   1.000  H 
  H45      1.0000 0.51648  0.41553  0.50872  Biso   1.000  H 
  H46      1.0000 0.54203  0.27241  0.49482  Biso   1.000  H 
  H47      1.0000 0.48354  0.32498  0.46072  Biso   1.000  H 
  H48      1.0000 0.48537  0.30006  0.54041  Biso   1.000  H 
  B109     1.0000 0.84640  0.00000  0.84640  Biso   1.000  B 
  B110     1.0000 0.82954  0.00000  0.90471  Biso   1.000  B 
  B111     1.0000 0.90471  0.00000  0.82954  Biso   1.000  B 
  B112     1.0000 0.79500  0.00000  0.79500  Biso   1.000  B 
  B113     1.0000 0.81563  0.00000  0.73249  Biso   1.000  B 
  N5       1.0000 0.88305  0.01450  0.71621  Biso   1.000  N 
  B114     1.0000 0.77872  0.00000  0.63051  Biso   1.000  B 
  B115     1.0000 0.76752  0.00000  0.68442  Biso   1.000  B 
  B116     1.0000 0.70501  0.00000  0.70500  Biso   1.000  B 
  B117     1.0000 0.68442  0.00000  0.76751  Biso   1.000  B 
  B118     1.0000 0.73249  0.00000  0.81563  Biso   1.000  B 
  B119     1.0000 0.72128  0.00000  0.86954  Biso   1.000  B 
  B120     1.0000 0.63051  0.00000  0.77872  Biso   1.000  B 
  B121     1.0000 0.59530  0.00000  0.67046  Biso   1.000  B 
  B122     1.0000 0.65361  0.00000  0.65360  Biso   1.000  B 
  B123     1.0000 0.67047  0.00000  0.59529  Biso   1.000  B 
  H49      1.0000 0.90563  0.05149  0.74250  Biso   1.000  H 
  C21      1.0000 0.91689  0.96650  0.68237  Biso   1.000  C 
  H50      1.0000 0.88925  0.91997  0.67714  Biso   1.000  H 
  H51      1.0000 0.96097  0.95771  0.71041  Biso   1.000  H 
  C22      1.0000 0.93376  0.00073  0.62064  Biso   1.000  C 
  H52      1.0000 0.96511  0.97484  0.58914  Biso   1.000  H 
  C23      1.0000 0.96583  0.06927  0.63653  Biso   1.000  C 
  H53      1.0000 0.88591  0.00133  0.60026  Biso   1.000  H 
  H54      1.0000 0.99267  0.04941  0.67489  Biso   1.000  H 
  H55      1.0000 0.93216  0.09814  0.66143  Biso   1.000  H 
  C24      1.0000 0.00468  0.11985  0.58586  Biso   1.000  C 
  C25      1.0000 0.06009  0.17569  0.59625  Biso   1.000  C 
  H56      1.0000 0.97112  0.14896  0.55958  Biso   1.000  H 
  H57      1.0000 0.01198  0.08493  0.55076  Biso   1.000  H 
  H58      1.0000 0.08460  0.18368  0.64154  Biso   1.000  H 
  H59      1.0000 0.04520  0.22242  0.57915  Biso   1.000  H 
  H60      1.0000 0.09555  0.16807  0.57017  Biso   1.000  H 
  B124     1.0000 0.84640  0.50000  0.34640  Biso   1.000  B 
  B125     1.0000 0.82954  0.50000  0.40471  Biso   1.000  B 
  B126     1.0000 0.90471  0.50000  0.32954  Biso   1.000  B 
  B127     1.0000 0.79500  0.50000  0.29500  Biso   1.000  B 
  B128     1.0000 0.81563  0.50000  0.23249  Biso   1.000  B 
  N6       1.0000 0.88335  0.51226  0.21747  Biso   1.000  N 
  B129     1.0000 0.77872  0.50000  0.13051  Biso   1.000  B 
  B130     1.0000 0.76752  0.50000  0.18442  Biso   1.000  B 
  B131     1.0000 0.70501  0.50000  0.20500  Biso   1.000  B 
  B132     1.0000 0.68442  0.50000  0.26751  Biso   1.000  B 
  B133     1.0000 0.73249  0.50000  0.31563  Biso   1.000  B 
  B134     1.0000 0.72128  0.50000  0.36954  Biso   1.000  B 
  B135     1.0000 0.63051  0.50000  0.27872  Biso   1.000  B 
  B136     1.0000 0.59530  0.50000  0.17046  Biso   1.000  B 
  B137     1.0000 0.65361  0.50000  0.15360  Biso   1.000  B 
  B138     1.0000 0.67047  0.50000  0.09529  Biso   1.000  B 
  H61      1.0000 0.90447  0.55562  0.23069  Biso   1.000  H 
  C26      1.0000 0.91360  0.46316  0.18201  Biso   1.000  C 
  H62      1.0000 0.88577  0.41718  0.18104  Biso   1.000  H 
  H63      1.0000 0.96002  0.45545  0.20522  Biso   1.000  H 
  C27      1.0000 0.92090  0.49312  0.11638  Biso   1.000  C 
  H64      1.0000 0.93058  0.45266  0.08236  Biso   1.000  H 
  C28      1.0000 0.96586  0.55568  0.12103  Biso   1.000  C 
  H65      1.0000 0.87327  0.50567  0.10297  Biso   1.000  H 
  H66      1.0000 0.98434  0.52558  0.08169  Biso   1.000  H 
  H67      1.0000 0.98680  0.54865  0.16794  Biso   1.000  H 
  C29      1.0000 0.99707  0.62634  0.09427  Biso   1.000  C 
  C30      1.0000 0.05906  0.67732  0.09742  Biso   1.000  C 
  H68      1.0000 0.97057  0.64704  0.05559  Biso   1.000  H 
  H69      1.0000 0.03030  0.60354  0.07642  Biso   1.000  H 
  H70      1.0000 0.08719  0.68273  0.14197  Biso   1.000  H 
  H71      1.0000 0.04102  0.72456  0.08079  Biso   1.000  H 
  H72      1.0000 0.09477  0.67112  0.06799  Biso   1.000  H 
  B139     1.0000 0.34640  0.00000  0.34640  Biso   1.000  B 
  B140     1.0000 0.32954  0.00000  0.40471  Biso   1.000  B 
  B141     1.0000 0.40471  0.00000  0.32954  Biso   1.000  B 
  B142     1.0000 0.29500  0.00000  0.29500  Biso   1.000  B 
  B143     1.0000 0.31563  0.00000  0.23249  Biso   1.000  B 
  N7       1.0000 0.38342  0.00985  0.21718  Biso   1.000  N 
  B144     1.0000 0.27872  0.00000  0.13051  Biso   1.000  B 
  B145     1.0000 0.26751  0.00000  0.18442  Biso   1.000  B 
  B146     1.0000 0.20500  0.00000  0.20500  Biso   1.000  B 
  B147     1.0000 0.18442  0.00000  0.26751  Biso   1.000  B 
  B148     1.0000 0.23249  0.00000  0.31563  Biso   1.000  B 
  B149     1.0000 0.22128  0.00000  0.36954  Biso   1.000  B 
  B150     1.0000 0.13051  0.00000  0.27872  Biso   1.000  B 
  B151     1.0000 0.09530  0.00000  0.17046  Biso   1.000  B 
  B152     1.0000 0.15360  0.00000  0.15360  Biso   1.000  B 
  B153     1.0000 0.17046  0.00000  0.09529  Biso   1.000  B 
  H73      1.0000 0.40260  0.05488  0.22974  Biso   1.000  H 
  C31      1.0000 0.40885  0.96106  0.17565  Biso   1.000  C 
  H74      1.0000 0.37823  0.91685  0.17322  Biso   1.000  H 
  H75      1.0000 0.45581  0.95005  0.19522  Biso   1.000  H 
  C32      1.0000 0.41800  0.99336  0.11249  Biso   1.000  C 
  H76      1.0000 0.42869  0.95346  0.07780  Biso   1.000  H 
  C33      1.0000 0.46485  0.05604  0.12222  Biso   1.000  C 
  H77      1.0000 0.37021  0.00491  0.10039  Biso   1.000  H 
  H78      1.0000 0.48495  0.02406  0.08642  Biso   1.000  H 
  H79      1.0000 0.48235  0.04847  0.17069  Biso   1.000  H 
  C34      1.0000 0.49717  0.12575  0.09256  Biso   1.000  C 
  C35      1.0000 0.55930  0.17572  0.09788  Biso   1.000  C 
  H80      1.0000 0.46934  0.15073  0.05511  Biso   1.000  H 
  H81      1.0000 0.52755  0.10181  0.07121  Biso   1.000  H 
  H82      1.0000 0.58730  0.18073  0.14299  Biso   1.000  H 
  H83      1.0000 0.54482  0.22429  0.08116  Biso   1.000  H 
  H84      1.0000 0.59575  0.16892  0.06776  Biso   1.000  H 
  B154     1.0000 0.34640  0.50000  0.84640  Biso   1.000  B 
  B155     1.0000 0.32954  0.50000  0.90471  Biso   1.000  B 
  B156     1.0000 0.40471  0.50000  0.82954  Biso   1.000  B 
  B157     1.0000 0.29500  0.50000  0.79500  Biso   1.000  B 
  B158     1.0000 0.31563  0.50000  0.73249  Biso   1.000  B 
  N8       1.0000 0.37323  0.45952  0.71483  Biso   1.000  N 
  B159     1.0000 0.27872  0.50000  0.63051  Biso   1.000  B 
  B160     1.0000 0.26751  0.50000  0.68442  Biso   1.000  B 
  B161     1.0000 0.20500  0.50000  0.70500  Biso   1.000  B 
  B162     1.0000 0.18442  0.50000  0.76751  Biso   1.000  B 
  B163     1.0000 0.23249  0.50000  0.81563  Biso   1.000  B 
  B164     1.0000 0.22128  0.50000  0.86954  Biso   1.000  B 
  B165     1.0000 0.13051  0.50000  0.77872  Biso   1.000  B 
  B166     1.0000 0.09530  0.50000  0.67046  Biso   1.000  B 
  B167     1.0000 0.15360  0.50000  0.65360  Biso   1.000  B 
  B168     1.0000 0.17046  0.50000  0.59529  Biso   1.000  B 
  H85      1.0000 0.41013  0.44976  0.74566  Biso   1.000  H 
  C36      1.0000 0.35427  0.39781  0.68979  Biso   1.000  C 
  H86      1.0000 0.30642  0.38088  0.70494  Biso   1.000  H 
  H87      1.0000 0.38728  0.35859  0.70190  Biso   1.000  H 
  C37      1.0000 0.34925  0.39584  0.61814  Biso   1.000  C 
  H88      1.0000 0.34316  0.34505  0.61034  Biso   1.000  H 
  C38      1.0000 0.40904  0.41776  0.58813  Biso   1.000  C 
  H89      1.0000 0.30786  0.42072  0.59303  Biso   1.000  H 
  H90      1.0000 0.38510  0.43201  0.54275  Biso   1.000  H 
  H91      1.0000 0.43366  0.37851  0.57832  Biso   1.000  H 
  C39      1.0000 0.44719  0.47610  0.61728  Biso   1.000  C 
  C40      1.0000 0.47678  0.51517  0.56149  Biso   1.000  C 
  H92      1.0000 0.48300  0.46939  0.65755  Biso   1.000  H 
  H93      1.0000 0.41878  0.51201  0.63783  Biso   1.000  H 
  H94      1.0000 0.53223  0.51220  0.55959  Biso   1.000  H 
  H95      1.0000 0.46411  0.56313  0.57037  Biso   1.000  H 
  H96      1.0000 0.45661  0.50604  0.51520  Biso   1.000  H 
  B169     1.0000 0.84640  0.15360  0.00000  Biso   1.000  B 
  B170     1.0000 0.90471  0.17046  0.00000  Biso   1.000  B 
  B171     1.0000 0.82954  0.09529  0.00000  Biso   1.000  B 
  B172     1.0000 0.79500  0.20500  0.00000  Biso   1.000  B 
  B173     1.0000 0.73249  0.18437  0.00000  Biso   1.000  B 
  N9       1.0000 0.72110  0.13200  0.94279  Biso   1.000  N 
  B174     1.0000 0.63051  0.22128  0.00000  Biso   1.000  B 
  B175     1.0000 0.68442  0.23249  0.00000  Biso   1.000  B 
  B176     1.0000 0.70500  0.29500  0.00000  Biso   1.000  B 
  B177     1.0000 0.76751  0.31558  0.00000  Biso   1.000  B 
  B178     1.0000 0.81563  0.26751  0.00000  Biso   1.000  B 
  B179     1.0000 0.86954  0.27872  0.00000  Biso   1.000  B 
  B180     1.0000 0.77872  0.36949  0.00000  Biso   1.000  B 
  B181     1.0000 0.67046  0.40470  0.00000  Biso   1.000  B 
  B182     1.0000 0.65360  0.34640  0.00000  Biso   1.000  B 
  B183     1.0000 0.59529  0.32954  0.00000  Biso   1.000  B 
  H97      1.0000 0.74538  0.08822  0.93939  Biso   1.000  H 
  C41      1.0000 0.68985  0.14613  0.87830  Biso   1.000  C 
  H98      1.0000 0.72886  0.14167  0.84175  Biso   1.000  H 
  H99      1.0000 0.67462  0.19710  0.87935  Biso   1.000  H 
  C42      1.0000 0.62795  0.10101  0.84998  Biso   1.000  C 
  H100     1.0000 0.59132  0.13673  0.85244  Biso   1.000  H 
  C43      1.0000 0.59614  0.02805  0.87554  Biso   1.000  C 
  H101     1.0000 0.63789  0.09985  0.79787  Biso   1.000  H 
  H102     1.0000 0.57406  0.02552  0.92028  Biso   1.000  H 
  H103     1.0000 0.63197  0.99227  0.88020  Biso   1.000  H 
  C44      1.0000 0.53941  0.98663  0.84405  Biso   1.000  C 
  C45      1.0000 0.50473  0.01198  0.78534  Biso   1.000  C 
  H104     1.0000 0.50017  0.97532  0.87959  Biso   1.000  H 
  H105     1.0000 0.55967  0.93949  0.82959  Biso   1.000  H 
  H106     1.0000 0.46149  0.03998  0.79862  Biso   1.000  H 
  H107     1.0000 0.48905  0.97211  0.75609  Biso   1.000  H 
  H108     1.0000 0.53902  0.04045  0.75760  Biso   1.000  H 
  B184     1.0000 0.84640  0.65360  0.50000  Biso   1.000  B 
  B185     1.0000 0.90471  0.67046  0.50000  Biso   1.000  B 
  B186     1.0000 0.82954  0.59529  0.50000  Biso   1.000  B 
  B187     1.0000 0.79500  0.70500  0.50000  Biso   1.000  B 
  B188     1.0000 0.73249  0.68437  0.50000  Biso   1.000  B 
  N10      1.0000 0.71815  0.63856  0.44054  Biso   1.000  N 
  B189     1.0000 0.63051  0.72128  0.50000  Biso   1.000  B 
  B190     1.0000 0.68442  0.73248  0.50000  Biso   1.000  B 
  B191     1.0000 0.70500  0.79499  0.50000  Biso   1.000  B 
  B192     1.0000 0.76751  0.81558  0.50000  Biso   1.000  B 
  B193     1.0000 0.81563  0.76751  0.50000  Biso   1.000  B 
  B194     1.0000 0.86954  0.77872  0.50000  Biso   1.000  B 
  B195     1.0000 0.77872  0.86949  0.50000  Biso   1.000  B 
  B196     1.0000 0.67046  0.90470  0.50000  Biso   1.000  B 
  B197     1.0000 0.65360  0.84639  0.50000  Biso   1.000  B 
  B198     1.0000 0.59529  0.82953  0.50000  Biso   1.000  B 
  H109     1.0000 0.76115  0.62329  0.41938  Biso   1.000  H 
  C46      1.0000 0.68044  0.66685  0.38312  Biso   1.000  C 
  H110     1.0000 0.71373  0.68018  0.34343  Biso   1.000  H 
  H111     1.0000 0.65903  0.71222  0.39322  Biso   1.000  H 
  C47      1.0000 0.62853  0.62244  0.35345  Biso   1.000  C 
  H112     1.0000 0.60507  0.65701  0.32281  Biso   1.000  H 
  C48      1.0000 0.57865  0.58653  0.39628  Biso   1.000  C 
  H113     1.0000 0.65235  0.59039  0.32251  Biso   1.000  H 
  H114     1.0000 0.53369  0.60446  0.38282  Biso   1.000  H 
  H115     1.0000 0.59114  0.59831  0.44601  Biso   1.000  H 
  C49      1.0000 0.56228  0.51052  0.37921  Biso   1.000  C 
  C50      1.0000 0.52486  0.50328  0.31499  Biso   1.000  C 
  H116     1.0000 0.53511  0.48553  0.41757  Biso   1.000  H 
  H117     1.0000 0.60797  0.48933  0.37494  Biso   1.000  H 
  H118     1.0000 0.47327  0.49829  0.32806  Biso   1.000  H 
  H119     1.0000 0.53864  0.46289  0.28404  Biso   1.000  H 
  H120     1.0000 0.53072  0.54589  0.28667  Biso   1.000  H 
  B199     1.0000 0.34640  0.15360  0.50000  Biso   1.000  B 
  B200     1.0000 0.40471  0.17046  0.50000  Biso   1.000  B 
  B201     1.0000 0.32954  0.09529  0.50000  Biso   1.000  B 
  B202     1.0000 0.29500  0.20500  0.50000  Biso   1.000  B 
  B203     1.0000 0.23249  0.18437  0.50000  Biso   1.000  B 
  N11      1.0000 0.21907  0.12994  0.44595  Biso   1.000  N 
  B204     1.0000 0.13051  0.22128  0.50000  Biso   1.000  B 
  B205     1.0000 0.18442  0.23249  0.50000  Biso   1.000  B 
  B206     1.0000 0.20500  0.29500  0.50000  Biso   1.000  B 
  B207     1.0000 0.26751  0.31558  0.50000  Biso   1.000  B 
  B208     1.0000 0.31563  0.26751  0.50000  Biso   1.000  B 
  B209     1.0000 0.36954  0.27872  0.50000  Biso   1.000  B 
  B210     1.0000 0.27872  0.36949  0.50000  Biso   1.000  B 
  B211     1.0000 0.17046  0.40470  0.50000  Biso   1.000  B 
  B212     1.0000 0.15360  0.34640  0.50000  Biso   1.000  B 
  B213     1.0000 0.09529  0.32954  0.50000  Biso   1.000  B 
  H121     1.0000 0.24067  0.08468  0.44809  Biso   1.000  H 
  C51      1.0000 0.19464  0.13763  0.37721  Biso   1.000  C 
  H122     1.0000 0.23546  0.12714  0.34469  Biso   1.000  H 
  H123     1.0000 0.18366  0.19001  0.37097  Biso   1.000  H 
  C52      1.0000 0.12946  0.09700  0.34786  Biso   1.000  C 
  H124     1.0000 0.08937  0.13294  0.34544  Biso   1.000  H 
  C53      1.0000 0.09515  0.02624  0.37233  Biso   1.000  C 
  H125     1.0000 0.14304  0.09700  0.29633  Biso   1.000  H 
  H126     1.0000 0.07258  0.02895  0.41783  Biso   1.000  H 
  H127     1.0000 0.13001  0.98917  0.37880  Biso   1.000  H 
  C54      1.0000 0.03959  0.98235  0.34336  Biso   1.000  C 
  C55      1.0000 0.99925  0.00799  0.28944  Biso   1.000  C 
  H128     1.0000 0.00545  0.96777  0.38122  Biso   1.000  H 
  H129     1.0000 0.06226  0.93633  0.32473  Biso   1.000  H 
  H130     1.0000 0.95949  0.03825  0.30846  Biso   1.000  H 
  H131     1.0000 0.97789  0.96856  0.26290  Biso   1.000  H 
  H132     1.0000 0.02956  0.03639  0.25842  Biso   1.000  H 
  B214     1.0000 0.34640  0.65360  0.00000  Biso   1.000  B 
  B215     1.0000 0.40471  0.67046  0.00000  Biso   1.000  B 
  B216     1.0000 0.32954  0.59529  0.00000  Biso   1.000  B 
  B217     1.0000 0.29500  0.70500  0.00000  Biso   1.000  B 
  B218     1.0000 0.23249  0.68437  0.00000  Biso   1.000  B 
  N12      1.0000 0.22150  0.63235  0.94169  Biso   1.000  N 
  B219     1.0000 0.13051  0.72128  0.00000  Biso   1.000  B 
  B220     1.0000 0.18442  0.73248  0.00000  Biso   1.000  B 
  B221     1.0000 0.20500  0.79499  0.00000  Biso   1.000  B 
  B222     1.0000 0.26751  0.81558  0.00000  Biso   1.000  B 
  B223     1.0000 0.31563  0.76751  0.00000  Biso   1.000  B 
  B224     1.0000 0.36954  0.77872  0.00000  Biso   1.000  B 
  B225     1.0000 0.27872  0.86949  0.00000  Biso   1.000  B 
  B226     1.0000 0.17046  0.90470  0.00000  Biso   1.000  B 
  B227     1.0000 0.15360  0.84639  0.00000  Biso   1.000  B 
  B228     1.0000 0.09529  0.82953  0.00000  Biso   1.000  B 
  H133     1.0000 0.26491  0.62394  0.91756  Biso   1.000  H 
  C56      1.0000 0.17878  0.65019  0.88388  Biso   1.000  C 
  H134     1.0000 0.21173  0.66469  0.84311  Biso   1.000  H 
  H135     1.0000 0.15097  0.69384  0.89497  Biso   1.000  H 
  C57      1.0000 0.12555  0.59952  0.85165  Biso   1.000  C 
  H136     1.0000 0.08750  0.63428  0.84618  Biso   1.000  H 
  C58      1.0000 0.09243  0.52699  0.87574  Biso   1.000  C 
  H137     1.0000 0.14281  0.59694  0.80135  Biso   1.000  H 
  H138     1.0000 0.06982  0.52389  0.92152  Biso   1.000  H 
  H139     1.0000 0.12920  0.49181  0.87917  Biso   1.000  H 
  C59      1.0000 0.03754  0.48369  0.84466  Biso   1.000  C 
  C60      1.0000 0.00465  0.50922  0.78559  Biso   1.000  C 
  H140     1.0000 0.99727  0.47172  0.87897  Biso   1.000  H 
  H141     1.0000 0.05865  0.43622  0.83186  Biso   1.000  H 
  H142     1.0000 0.96206  0.53807  0.79887  Biso   1.000  H 
  H143     1.0000 0.98739  0.46953  0.75651  Biso   1.000  H 
  H144     1.0000 0.03880  0.53930  0.75827  Biso   1.000  H 
  B229     1.0000 0.84640  0.84640  0.00000  Biso   1.000  B 
  B230     1.0000 0.90471  0.82954  0.00000  Biso   1.000  B 
  B231     1.0000 0.82954  0.90471  0.00000  Biso   1.000  B 
  B232     1.0000 0.79500  0.79500  0.00000  Biso   1.000  B 
  B233     1.0000 0.73249  0.81563  0.00000  Biso   1.000  B 
  N13      1.0000 0.71652  0.88350  0.01059  Biso   1.000  N 
  B234     1.0000 0.63051  0.77872  0.00000  Biso   1.000  B 
  B235     1.0000 0.68442  0.76752  0.00000  Biso   1.000  B 
  B236     1.0000 0.70500  0.70501  0.00000  Biso   1.000  B 
  B237     1.0000 0.76751  0.68442  0.00000  Biso   1.000  B 
  B238     1.0000 0.81563  0.73249  0.00000  Biso   1.000  B 
  B239     1.0000 0.86954  0.72128  0.00000  Biso   1.000  B 
  B240     1.0000 0.77872  0.63051  0.00000  Biso   1.000  B 
  B241     1.0000 0.67046  0.59530  0.00000  Biso   1.000  B 
  B242     1.0000 0.65360  0.65361  0.00000  Biso   1.000  B 
  B243     1.0000 0.59529  0.67047  0.00000  Biso   1.000  B 
  H145     1.0000 0.73505  0.90686  0.05126  Biso   1.000  H 
  C61      1.0000 0.67869  0.91298  0.96183  Biso   1.000  C 
  H146     1.0000 0.67764  0.88546  0.91590  Biso   1.000  H 
  H147     1.0000 0.70285  0.95981  0.95464  Biso   1.000  H 
  C62      1.0000 0.61421  0.92009  0.99237  Biso   1.000  C 
  H148     1.0000 0.58037  0.93026  0.95147  Biso   1.000  H 
  C63      1.0000 0.62063  0.96568  0.05622  Biso   1.000  C 
  H149     1.0000 0.59959  0.87337  0.00432  Biso   1.000  H 
  H150     1.0000 0.58473  0.98629  0.02440  Biso   1.000  H 
  H151     1.0000 0.66777  0.98480  0.04910  Biso   1.000  H 
  C64      1.0000 0.59197  0.99596  0.12634  Biso   1.000  C 
  C65      1.0000 0.59579  0.05740  0.17798  Biso   1.000  C 
  H152     1.0000 0.55335  0.96897  0.14866  Biso   1.000  H 
  H153     1.0000 0.57379  0.02951  0.10262  Biso   1.000  H 
  H154     1.0000 0.64008  0.08545  0.18384  Biso   1.000  H 
  H155     1.0000 0.57865  0.04212  0.22588  Biso   1.000  H 
  H156     1.0000 0.56647  0.09317  0.17062  Biso   1.000  H 
  B244     1.0000 0.84640  0.34640  0.50000  Biso   1.000  B 
  B245     1.0000 0.90471  0.32954  0.50000  Biso   1.000  B 
  B246     1.0000 0.82954  0.40471  0.50000  Biso   1.000  B 
  B247     1.0000 0.79500  0.29500  0.50000  Biso   1.000  B 
  B248     1.0000 0.73249  0.31563  0.50000  Biso   1.000  B 
  N14      1.0000 0.71402  0.38122  0.52048  Biso   1.000  N 
  B249     1.0000 0.63051  0.27872  0.50000  Biso   1.000  B 
  B250     1.0000 0.68442  0.26751  0.50000  Biso   1.000  B 
  B251     1.0000 0.70500  0.20500  0.50000  Biso   1.000  B 
  B252     1.0000 0.76751  0.18442  0.50000  Biso   1.000  B 
  B253     1.0000 0.81563  0.23249  0.50000  Biso   1.000  B 
  B254     1.0000 0.86954  0.22128  0.50000  Biso   1.000  B 
  B255     1.0000 0.77872  0.13051  0.50000  Biso   1.000  B 
  B256     1.0000 0.67046  0.09530  0.50000  Biso   1.000  B 
  B257     1.0000 0.65360  0.15360  0.50000  Biso   1.000  B 
  B258     1.0000 0.59529  0.17046  0.50000  Biso   1.000  B 
  H157     1.0000 0.73786  0.39598  0.56069  Biso   1.000  H 
  C66      1.0000 0.70145  0.42379  0.46574  Biso   1.000  C 
  H158     1.0000 0.67193  0.39987  0.42975  Biso   1.000  H 
  H159     1.0000 0.74556  0.43563  0.44265  Biso   1.000  H 
  C67      1.0000 0.67407  0.48461  0.48890  Biso   1.000  C 
  H160     1.0000 0.65556  0.51582  0.45048  Biso   1.000  H 
  C68      1.0000 0.72120  0.52606  0.52107  Biso   1.000  C 
  H161     1.0000 0.63220  0.47904  0.52466  Biso   1.000  H 
  H162     1.0000 0.74776  0.54207  0.47969  Biso   1.000  H 
  H163     1.0000 0.74851  0.49285  0.54124  Biso   1.000  H 
  C69      1.0000 0.69166  0.57725  0.57111  Biso   1.000  C 
  C70      1.0000 0.73317  0.62176  0.62846  Biso   1.000  C 
  H164     1.0000 0.65264  0.55706  0.59689  Biso   1.000  H 
  H165     1.0000 0.66862  0.60260  0.53948  Biso   1.000  H 
  H166     1.0000 0.78546  0.60623  0.63498  Biso   1.000  H 
  H167     1.0000 0.70900  0.61649  0.67378  Biso   1.000  H 
  H168     1.0000 0.73745  0.67459  0.61957  Biso   1.000  H 
  B259     1.0000 0.34640  0.84640  0.50000  Biso   1.000  B 
  B260     1.0000 0.40471  0.82954  0.50000  Biso   1.000  B 
  B261     1.0000 0.32954  0.90471  0.50000  Biso   1.000  B 
  B262     1.0000 0.29500  0.79500  0.50000  Biso   1.000  B 
  B263     1.0000 0.23249  0.81563  0.50000  Biso   1.000  B 
  N15      1.0000 0.21645  0.88364  0.51412  Biso   1.000  N 
  B264     1.0000 0.13051  0.77872  0.50000  Biso   1.000  B 
  B265     1.0000 0.18442  0.76752  0.50000  Biso   1.000  B 
  B266     1.0000 0.20500  0.70501  0.50000  Biso   1.000  B 
  B267     1.0000 0.26751  0.68442  0.50000  Biso   1.000  B 
  B268     1.0000 0.31563  0.73249  0.50000  Biso   1.000  B 
  B269     1.0000 0.36954  0.72128  0.50000  Biso   1.000  B 
  B270     1.0000 0.27872  0.63051  0.50000  Biso   1.000  B 
  B271     1.0000 0.17046  0.59530  0.50000  Biso   1.000  B 
  B272     1.0000 0.15360  0.65361  0.50000  Biso   1.000  B 
  B273     1.0000 0.09529  0.67047  0.50000  Biso   1.000  B 
  H169     1.0000 0.24017  0.90458  0.55350  Biso   1.000  H 
  C71      1.0000 0.17883  0.91951  0.46688  Biso   1.000  C 
  H170     1.0000 0.16771  0.89031  0.42273  Biso   1.000  H 
  H171     1.0000 0.20637  0.96418  0.45688  Biso   1.000  H 
  C72      1.0000 0.11847  0.93425  0.50497  Biso   1.000  C 
  H172     1.0000 0.07579  0.95885  0.48330  Biso   1.000  H 
  C73      1.0000 0.13764  0.96482  0.57333  Biso   1.000  C 
  H173     1.0000 0.10319  0.88536  0.50755  Biso   1.000  H 
  H174     1.0000 0.17481  0.98961  0.55229  Biso   1.000  H 
  H175     1.0000 0.16119  0.93199  0.60138  Biso   1.000  H 
  C74      1.0000 0.08886  0.00297  0.62438  Biso   1.000  C 
  C75      1.0000 0.09865  0.06223  0.67766  Biso   1.000  C 
  H176     1.0000 0.05965  0.97014  0.65327  Biso   1.000  H 
  H177     1.0000 0.05653  0.01518  0.59198  Biso   1.000  H 
  H178     1.0000 0.14468  0.08925  0.68560  Biso   1.000  H 
  H179     1.0000 0.08247  0.04571  0.72513  Biso   1.000  H 
  H180     1.0000 0.07065  0.09713  0.67185  Biso   1.000  H 
  B274     1.0000 0.34640  0.34640  0.00000  Biso   1.000  B 
  B275     1.0000 0.40471  0.32954  0.00000  Biso   1.000  B 
  B276     1.0000 0.32954  0.40471  0.00000  Biso   1.000  B 
  B277     1.0000 0.29500  0.29500  0.00000  Biso   1.000  B 
  B278     1.0000 0.23249  0.31563  0.00000  Biso   1.000  B 
  N16      1.0000 0.21778  0.38481  0.00680  Biso   1.000  N 
  B279     1.0000 0.13051  0.27872  0.00000  Biso   1.000  B 
  B280     1.0000 0.18442  0.26751  0.00000  Biso   1.000  B 
  B281     1.0000 0.20500  0.20500  0.00000  Biso   1.000  B 
  B282     1.0000 0.26751  0.18442  0.00000  Biso   1.000  B 
  B283     1.0000 0.31563  0.23249  0.00000  Biso   1.000  B 
  B284     1.0000 0.36954  0.22128  0.00000  Biso   1.000  B 
  B285     1.0000 0.27872  0.13051  0.00000  Biso   1.000  B 
  B286     1.0000 0.17046  0.09530  0.00000  Biso   1.000  B 
  B287     1.0000 0.15360  0.15360  0.00000  Biso   1.000  B 
  B288     1.0000 0.09529  0.17046  0.00000  Biso   1.000  B 
  H181     1.0000 0.22092  0.39889  0.05471  Biso   1.000  H 
  C76      1.0000 0.17489  0.41133  0.95999  Biso   1.000  C 
  H182     1.0000 0.17287  0.38225  0.91568  Biso   1.000  H 
  H183     1.0000 0.19603  0.45807  0.94934  Biso   1.000  H 
  C77      1.0000 0.11271  0.41849  0.99363  Biso   1.000  C 
  H184     1.0000 0.07502  0.42713  0.95579  Biso   1.000  H 
  C78      1.0000 0.12179  0.46728  0.05378  Biso   1.000  C 
  H185     1.0000 0.10231  0.37061  0.00554  Biso   1.000  H 
  H186     1.0000 0.08718  0.48880  0.02137  Biso   1.000  H 
  H187     1.0000 0.16978  0.48492  0.04742  Biso   1.000  H 
  C79      1.0000 0.09251  0.49606  0.12447  Biso   1.000  C 
  C80      1.0000 0.09838  0.55860  0.17588  Biso   1.000  C 
  H188     1.0000 0.05531  0.46887  0.14861  Biso   1.000  H 
  H189     1.0000 0.07106  0.52617  0.10168  Biso   1.000  H 
  H190     1.0000 0.14363  0.58682  0.18227  Biso   1.000  H 
  H191     1.0000 0.08108  0.54337  0.22439  Biso   1.000  H 
  H192     1.0000 0.06886  0.59423  0.16912  Biso   1.000  H 
  B289     1.0000 0.00000  0.84640  0.15360  Biso   1.000  B 
  B290     1.0000 0.00000  0.90471  0.17046  Biso   1.000  B 
  B291     1.0000 0.00000  0.82954  0.09529  Biso   1.000  B 
  B292     1.0000 0.00000  0.79500  0.20500  Biso   1.000  B 
  B293     1.0000 0.00000  0.73249  0.18437  Biso   1.000  B 
  N17      1.0000 0.94196  0.72145  0.13183  Biso   1.000  N 
  B294     1.0000 0.00000  0.63051  0.22128  Biso   1.000  B 
  B295     1.0000 0.00000  0.68442  0.23249  Biso   1.000  B 
  B296     1.0000 0.00000  0.70500  0.29500  Biso   1.000  B 
  B297     1.0000 0.00000  0.76751  0.31558  Biso   1.000  B 
  B298     1.0000 0.00000  0.81563  0.26751  Biso   1.000  B 
  B299     1.0000 0.00000  0.86954  0.27872  Biso   1.000  B 
  B300     1.0000 0.00000  0.77872  0.36949  Biso   1.000  B 
  B301     1.0000 0.00000  0.67046  0.40470  Biso   1.000  B 
  B302     1.0000 0.00000  0.65360  0.34640  Biso   1.000  B 
  B303     1.0000 0.00000  0.59529  0.32954  Biso   1.000  B 
  H193     1.0000 0.91978  0.76414  0.11697  Biso   1.000  H 
  C81      1.0000 0.88358  0.68076  0.14998  Biso   1.000  C 
  H194     1.0000 0.84349  0.71350  0.16584  Biso   1.000  H 
  H195     1.0000 0.89490  0.65374  0.19389  Biso   1.000  H 
  C82      1.0000 0.85112  0.62786  0.09932  Biso   1.000  C 
  H196     1.0000 0.84725  0.58950  0.13388  Biso   1.000  H 
  C83      1.0000 0.87533  0.59329  0.02795  Biso   1.000  C 
  H197     1.0000 0.80106  0.64278  0.09671  Biso   1.000  H 
  H198     1.0000 0.92018  0.57102  0.02514  Biso   1.000  H 
  H199     1.0000 0.88178  0.63001  0.99398  Biso   1.000  H 
  C84      1.0000 0.84319  0.54078  0.98063  Biso   1.000  C 
  C85      1.0000 0.79059  0.50101  0.00625  Biso   1.000  C 
  H200     1.0000 0.87980  0.50533  0.96251  Biso   1.000  H 
  H201     1.0000 0.82396  0.56510  0.93708  Biso   1.000  H 
  H202     1.0000 0.81032  0.46158  0.03650  Biso   1.000  H 
  H203     1.0000 0.76391  0.47884  0.96660  Biso   1.000  H 
  H204     1.0000 0.75783  0.53071  0.03455  Biso   1.000  H 
  B304     1.0000 0.00000  0.34640  0.65360  Biso   1.000  B 
  B305     1.0000 0.00000  0.40471  0.67046  Biso   1.000  B 
  B306     1.0000 0.00000  0.32954  0.59529  Biso   1.000  B 
  B307     1.0000 0.00000  0.29500  0.70500  Biso   1.000  B 
  B308     1.0000 0.00000  0.23249  0.68437  Biso   1.000  B 
  N18      1.0000 0.94328  0.21832  0.63175  Biso   1.000  N 
  B309     1.0000 0.00000  0.13051  0.72128  Biso   1.000  B 
  B310     1.0000 0.00000  0.18442  0.73248  Biso   1.000  B 
  B311     1.0000 0.00000  0.20500  0.79499  Biso   1.000  B 
  B312     1.0000 0.00000  0.26751  0.81558  Biso   1.000  B 
  B313     1.0000 0.00000  0.31563  0.76751  Biso   1.000  B 
  B314     1.0000 0.00000  0.36954  0.77872  Biso   1.000  B 
  B315     1.0000 0.00000  0.27872  0.86949  Biso   1.000  B 
  B316     1.0000 0.00000  0.17046  0.90470  Biso   1.000  B 
  B317     1.0000 0.00000  0.15360  0.84639  Biso   1.000  B 
  B318     1.0000 0.00000  0.09529  0.82953  Biso   1.000  B 
  H205     1.0000 0.94250  0.24541  0.59070  Biso   1.000  H 
  C86      1.0000 0.87455  0.19380  0.64349  Biso   1.000  C 
  H206     1.0000 0.84102  0.23572  0.63870  Biso   1.000  H 
  H207     1.0000 0.87026  0.17983  0.69545  Biso   1.000  H 
  C87      1.0000 0.84399  0.13137  0.60070  Biso   1.000  C 
  H208     1.0000 0.84153  0.08949  0.63369  Biso   1.000  H 
  C88      1.0000 0.87436  0.09841  0.53262  Biso   1.000  C 
  H209     1.0000 0.79157  0.14231  0.59920  Biso   1.000  H 
  H210     1.0000 0.91355  0.07302  0.53997  Biso   1.000  H 
  H211     1.0000 0.88782  0.13249  0.49779  Biso   1.000  H 
  C89      1.0000 0.85070  0.04071  0.48657  Biso   1.000  C 
  C90      1.0000 0.79825  0.99804  0.51136  Biso   1.000  C 
  H212     1.0000 0.89044  0.00663  0.47282  Biso   1.000  H 
  H213     1.0000 0.83317  0.06446  0.44112  Biso   1.000  H 
  H214     1.0000 0.81550  0.96062  0.54438  Biso   1.000  H 
  H215     1.0000 0.77285  0.97496  0.47171  Biso   1.000  H 
  H216     1.0000 0.76325  0.02960  0.53698  Biso   1.000  H 
  B319     1.0000 0.50000  0.84640  0.65360  Biso   1.000  B 
  B320     1.0000 0.50000  0.90471  0.67046  Biso   1.000  B 
  B321     1.0000 0.50000  0.82954  0.59529  Biso   1.000  B 
  B322     1.0000 0.50000  0.79500  0.70500  Biso   1.000  B 
  B323     1.0000 0.50000  0.73249  0.68437  Biso   1.000  B 
  N19      1.0000 0.43447  0.72253  0.64265  Biso   1.000  N 
  B324     1.0000 0.50000  0.63051  0.72128  Biso   1.000  B 
  B325     1.0000 0.50000  0.68442  0.73248  Biso   1.000  B 
  B326     1.0000 0.50000  0.70500  0.79499  Biso   1.000  B 
  B327     1.0000 0.50000  0.76751  0.81558  Biso   1.000  B 
  B328     1.0000 0.50000  0.81563  0.76751  Biso   1.000  B 
  B329     1.0000 0.50000  0.86954  0.77872  Biso   1.000  B 
  B330     1.0000 0.50000  0.77872  0.86949  Biso   1.000  B 
  B331     1.0000 0.50000  0.67046  0.90470  Biso   1.000  B 
  B332     1.0000 0.50000  0.65360  0.84639  Biso   1.000  B 
  B333     1.0000 0.50000  0.59529  0.82953  Biso   1.000  B 
  H217     1.0000 0.42748  0.75621  0.60816  Biso   1.000  H 
  C91      1.0000 0.38348  0.74169  0.68889  Biso   1.000  C 
  H218     1.0000 0.37986  0.79544  0.69634  Biso   1.000  H 
  H219     1.0000 0.38852  0.71632  0.73741  Biso   1.000  H 
  C92      1.0000 0.32079  0.72679  0.66046  Biso   1.000  C 
  H220     1.0000 0.28973  0.74264  0.70000  Biso   1.000  H 
  C93      1.0000 0.30852  0.65837  0.64693  Biso   1.000  C 
  H221     1.0000 0.31340  0.75578  0.61964  Biso   1.000  H 
  H222     1.0000 0.26303  0.65848  0.62518  Biso   1.000  H 
  H223     1.0000 0.30707  0.63394  0.69657  Biso   1.000  H 
  C94      1.0000 0.35827  0.61691  0.61375  Biso   1.000  C 
  C95      1.0000 0.33389  0.56501  0.56524  Biso   1.000  C 
  H224     1.0000 0.38708  0.59820  0.64734  Biso   1.000  H 
  H225     1.0000 0.38743  0.64535  0.58407  Biso   1.000  H 
  H226     1.0000 0.34565  0.52531  0.58145  Biso   1.000  H 
  H227     1.0000 0.34774  0.56614  0.51800  Biso   1.000  H 
  H228     1.0000 0.28034  0.56487  0.55992  Biso   1.000  H 
  B334     1.0000 0.50000  0.34640  0.15360  Biso   1.000  B 
  B335     1.0000 0.50000  0.40471  0.17046  Biso   1.000  B 
  B336     1.0000 0.50000  0.32954  0.09529  Biso   1.000  B 
  B337     1.0000 0.50000  0.29500  0.20500  Biso   1.000  B 
  B338     1.0000 0.50000  0.23249  0.18437  Biso   1.000  B 
  N20      1.0000 0.44280  0.22074  0.13272  Biso   1.000  N 
  B339     1.0000 0.50000  0.13051  0.22128  Biso   1.000  B 
  B340     1.0000 0.50000  0.18442  0.23249  Biso   1.000  B 
  B341     1.0000 0.50000  0.20500  0.29500  Biso   1.000  B 
  B342     1.0000 0.50000  0.26751  0.31558  Biso   1.000  B 
  B343     1.0000 0.50000  0.31563  0.26751  Biso   1.000  B 
  B344     1.0000 0.50000  0.36954  0.27872  Biso   1.000  B 
  B345     1.0000 0.50000  0.27872  0.36949  Biso   1.000  B 
  B346     1.0000 0.50000  0.17046  0.40470  Biso   1.000  B 
  B347     1.0000 0.50000  0.15360  0.34640  Biso   1.000  B 
  B348     1.0000 0.50000  0.09529  0.32954  Biso   1.000  B 
  H229     1.0000 0.42022  0.26344  0.11904  Biso   1.000  H 
  C96      1.0000 0.38629  0.17790  0.15028  Biso   1.000  C 
  H230     1.0000 0.34638  0.21126  0.16830  Biso   1.000  H 
  H231     1.0000 0.39877  0.14933  0.19284  Biso   1.000  H 
  C97      1.0000 0.35080  0.12707  0.09952  Biso   1.000  C 
  H232     1.0000 0.34317  0.08910  0.13237  Biso   1.000  H 
  C98      1.0000 0.37555  0.09378  0.02748  Biso   1.000  C 
  H233     1.0000 0.30150  0.14528  0.09634  Biso   1.000  H 
  H234     1.0000 0.42054  0.07056  0.02563  Biso   1.000  H 
  H235     1.0000 0.38080  0.13038  0.99250  Biso   1.000  H 
  C99      1.0000 0.34306  0.04044  0.98292  Biso   1.000  C 
  C100     1.0000 0.28798  0.00122  0.00865  Biso   1.000  C 
  H236     1.0000 0.37966  0.00415  0.96661  Biso   1.000  H 
  H237     1.0000 0.32677  0.06367  0.93761  Biso   1.000  H 
  H238     1.0000 0.30445  0.95985  0.03795  Biso   1.000  H 
  H239     1.0000 0.26105  0.98159  0.96750  Biso   1.000  H 
  H240     1.0000 0.25746  0.03314  0.03682  Biso   1.000  H 
  B349     1.0000 0.00000  0.84640  0.84640  Biso   1.000  B 
  B350     1.0000 0.00000  0.90471  0.82954  Biso   1.000  B 
  B351     1.0000 0.00000  0.82954  0.90471  Biso   1.000  B 
  B352     1.0000 0.00000  0.79500  0.79500  Biso   1.000  B 
  B353     1.0000 0.00000  0.73249  0.81563  Biso   1.000  B 
  N21      1.0000 0.00766  0.71770  0.88390  Biso   1.000  N 
  B354     1.0000 0.00000  0.63051  0.77872  Biso   1.000  B 
  B355     1.0000 0.00000  0.68442  0.76752  Biso   1.000  B 
  B356     1.0000 0.00000  0.70500  0.70501  Biso   1.000  B 
  B357     1.0000 0.00000  0.76751  0.68442  Biso   1.000  B 
  B358     1.0000 0.00000  0.81563  0.73249  Biso   1.000  B 
  B359     1.0000 0.00000  0.86954  0.72128  Biso   1.000  B 
  B360     1.0000 0.00000  0.77872  0.63051  Biso   1.000  B 
  B361     1.0000 0.00000  0.67046  0.59530  Biso   1.000  B 
  B362     1.0000 0.00000  0.65360  0.65361  Biso   1.000  B 
  B363     1.0000 0.00000  0.59529  0.67047  Biso   1.000  B 
  H241     1.0000 0.05260  0.72685  0.90364  Biso   1.000  H 
  C101     1.0000 0.96078  0.67617  0.91236  Biso   1.000  C 
  H242     1.0000 0.91530  0.67240  0.88382  Biso   1.000  H 
  H243     1.0000 0.95164  0.69681  0.95938  Biso   1.000  H 
  C102     1.0000 0.99386  0.61297  0.91962  Biso   1.000  C 
  H244     1.0000 0.95477  0.57753  0.92984  Biso   1.000  H 
  C103     1.0000 0.05456  0.62095  0.96751  Biso   1.000  C 
  H245     1.0000 0.00513  0.60143  0.87144  Biso   1.000  H 
  H246     1.0000 0.02322  0.58487  0.98844  Biso   1.000  H 
  H247     1.0000 0.04768  0.66859  0.98537  Biso   1.000  H 
  C104     1.0000 0.12498  0.59375  0.99752  Biso   1.000  C 
  C105     1.0000 0.17532  0.59657  0.05772  Biso   1.000  C 
  H248     1.0000 0.14681  0.55533  0.97049  Biso   1.000  H 
  H249     1.0000 0.10271  0.57618  0.03158  Biso   1.000  H 
  H250     1.0000 0.18217  0.64123  0.08693  Biso   1.000  H 
  H251     1.0000 0.22257  0.57883  0.04027  Biso   1.000  H 
  H252     1.0000 0.17002  0.56769  0.09426  Biso   1.000  H 
  B364     1.0000 0.00000  0.34640  0.34640  Biso   1.000  B 
  B365     1.0000 0.00000  0.40471  0.32954  Biso   1.000  B 
  B366     1.0000 0.00000  0.32954  0.40471  Biso   1.000  B 
  B367     1.0000 0.00000  0.29500  0.29500  Biso   1.000  B 
  B368     1.0000 0.00000  0.23249  0.31563  Biso   1.000  B 
  N22      1.0000 0.01121  0.21660  0.38308  Biso   1.000  N 
  B369     1.0000 0.00000  0.13051  0.27872  Biso   1.000  B 
  B370     1.0000 0.00000  0.18442  0.26751  Biso   1.000  B 
  B371     1.0000 0.00000  0.20500  0.20500  Biso   1.000  B 
  B372     1.0000 0.00000  0.26751  0.18442  Biso   1.000  B 
  B373     1.0000 0.00000  0.31563  0.23249  Biso   1.000  B 
  B374     1.0000 0.00000  0.36954  0.22128  Biso   1.000  B 
  B375     1.0000 0.00000  0.27872  0.13051  Biso   1.000  B 
  B376     1.0000 0.00000  0.17046  0.09530  Biso   1.000  B 
  B377     1.0000 0.00000  0.15360  0.15360  Biso   1.000  B 
  B378     1.0000 0.00000  0.09529  0.17046  Biso   1.000  B 
  H253     1.0000 0.05130  0.23857  0.40478  Biso   1.000  H 
  C106     1.0000 0.96584  0.17451  0.41464  Biso   1.000  C 
  H254     1.0000 0.92125  0.16453  0.38795  Biso   1.000  H 
  H255     1.0000 0.95599  0.20032  0.45803  Biso   1.000  H 
  C107     1.0000 0.00145  0.11439  0.43197  Biso   1.000  C 
  H256     1.0000 0.97655  0.07781  0.45903  Biso   1.000  H 
  C108     1.0000 0.06992  0.13378  0.46408  Biso   1.000  C 
  H257     1.0000 0.00303  0.09345  0.38354  Biso   1.000  H 
  H258     1.0000 0.04977  0.17276  0.48926  Biso   1.000  H 
  H259     1.0000 0.10017  0.15899  0.43565  Biso   1.000  H 
  C109     1.0000 0.12076  0.08575  0.50413  Biso   1.000  C 
  C110     1.0000 0.17771  0.09713  0.56094  Biso   1.000  C 
  H260     1.0000 0.14870  0.05676  0.47211  Biso   1.000  H 
  H261     1.0000 0.08855  0.05205  0.51533  Biso   1.000  H 
  H262     1.0000 0.18202  0.14266  0.58695  Biso   1.000  H 
  H263     1.0000 0.22586  0.07746  0.54851  Biso   1.000  H 
  H264     1.0000 0.16839  0.07180  0.59725  Biso   1.000  H 
  B379     1.0000 0.50000  0.84640  0.34640  Biso   1.000  B 
  B380     1.0000 0.50000  0.90471  0.32954  Biso   1.000  B 
  B381     1.0000 0.50000  0.82954  0.40471  Biso   1.000  B 
  B382     1.0000 0.50000  0.79500  0.29500  Biso   1.000  B 
  B383     1.0000 0.50000  0.73249  0.31563  Biso   1.000  B 
  N23      1.0000 0.51371  0.71486  0.38281  Biso   1.000  N 
  B384     1.0000 0.50000  0.63051  0.27872  Biso   1.000  B 
  B385     1.0000 0.50000  0.68442  0.26751  Biso   1.000  B 
  B386     1.0000 0.50000  0.70500  0.20500  Biso   1.000  B 
  B387     1.0000 0.50000  0.76751  0.18442  Biso   1.000  B 
  B388     1.0000 0.50000  0.81563  0.23249  Biso   1.000  B 
  B389     1.0000 0.50000  0.86954  0.22128  Biso   1.000  B 
  B390     1.0000 0.50000  0.77872  0.13051  Biso   1.000  B 
  B391     1.0000 0.50000  0.67046  0.09530  Biso   1.000  B 
  B392     1.0000 0.50000  0.65360  0.15360  Biso   1.000  B 
  B393     1.0000 0.50000  0.59529  0.17046  Biso   1.000  B 
  H265     1.0000 0.55987  0.72680  0.40168  Biso   1.000  H 
  C111     1.0000 0.45200  0.69240  0.40667  Biso   1.000  C 
  H266     1.0000 0.42717  0.65762  0.37118  Biso   1.000  H 
  H267     1.0000 0.42170  0.73701  0.40984  Biso   1.000  H 
  C112     1.0000 0.46301  0.65454  0.46748  Biso   1.000  C 
  H268     1.0000 0.41946  0.64518  0.49093  Biso   1.000  H 
  C113     1.0000 0.50300  0.69433  0.51452  Biso   1.000  C 
  H269     1.0000 0.48703  0.60596  0.46186  Biso   1.000  H 
  H270     1.0000 0.47936  0.72856  0.53879  Biso   1.000  H 
  H271     1.0000 0.53812  0.72491  0.49238  Biso   1.000  H 
  C114     1.0000 0.54325  0.65149  0.56443  Biso   1.000  C 
  C115     1.0000 0.59391  0.69193  0.60611  Biso   1.000  C 
  H272     1.0000 0.56976  0.61018  0.54487  Biso   1.000  H 
  H273     1.0000 0.51640  0.63433  0.60538  Biso   1.000  H 
  H274     1.0000 0.58837  0.74103  0.58852  Biso   1.000  H 
  H275     1.0000 0.64324  0.68094  0.59211  Biso   1.000  H 
  H276     1.0000 0.60120  0.69280  0.65819  Biso   1.000  H 
  B394     1.0000 0.50000  0.34640  0.84640  Biso   1.000  B 
  B395     1.0000 0.50000  0.40471  0.82954  Biso   1.000  B 
  B396     1.0000 0.50000  0.32954  0.90471  Biso   1.000  B 
  B397     1.0000 0.50000  0.29500  0.79500  Biso   1.000  B 
  B398     1.0000 0.50000  0.23249  0.81563  Biso   1.000  B 
  N24      1.0000 0.51228  0.21788  0.88303  Biso   1.000  N 
  B399     1.0000 0.50000  0.13051  0.77872  Biso   1.000  B 
  B400     1.0000 0.50000  0.18442  0.76752  Biso   1.000  B 
  B401     1.0000 0.50000  0.20500  0.70501  Biso   1.000  B 
  B402     1.0000 0.50000  0.26751  0.68442  Biso   1.000  B 
  B403     1.0000 0.50000  0.31563  0.73249  Biso   1.000  B 
  B404     1.0000 0.50000  0.36954  0.72128  Biso   1.000  B 
  B405     1.0000 0.50000  0.27872  0.63051  Biso   1.000  B 
  B406     1.0000 0.50000  0.17046  0.59530  Biso   1.000  B 
  B407     1.0000 0.50000  0.15360  0.65361  Biso   1.000  B 
  B408     1.0000 0.50000  0.09529  0.67047  Biso   1.000  B 
  H277     1.0000 0.56005  0.22441  0.90027  Biso   1.000  H 
  C116     1.0000 0.46262  0.17935  0.91012  Biso   1.000  C 
  H278     1.0000 0.41704  0.17721  0.88225  Biso   1.000  H 
  H279     1.0000 0.45369  0.20140  0.95708  Biso   1.000  H 
  C117     1.0000 0.49300  0.11558  0.91797  Biso   1.000  C 
  H280     1.0000 0.45131  0.08290  0.92738  Biso   1.000  H 
  C118     1.0000 0.55441  0.12060  0.96542  Biso   1.000  C 
  H281     1.0000 0.50591  0.10176  0.87115  Biso   1.000  H 
  H282     1.0000 0.52362  0.08119  0.98347  Biso   1.000  H 
  H283     1.0000 0.54561  0.16803  0.98543  Biso   1.000  H 
  C119     1.0000 0.62599  0.09267  0.99668  Biso   1.000  C 
  C120     1.0000 0.67621  0.09657  0.05938  Biso   1.000  C 
  H284     1.0000 0.64875  0.05407  0.96970  Biso   1.000  H 
  H285     1.0000 0.60233  0.07244  0.02842  Biso   1.000  H 
  H286     1.0000 0.68341  0.14148  0.08638  Biso   1.000  H 
  H287     1.0000 0.72254  0.07871  0.04256  Biso   1.000  H 
  H288     1.0000 0.66900  0.06757  0.09581  Biso   1.000  H 
