
#######################################################################
#
#                 Cambridge Crystallographic Data Centre
#                                CCDC
#
#######################################################################
#
# If this CIF has been generated from an entry in the Cambridge
# Structural Database, then it will include bibliographic, chemical,
# crystal, experimental, refinement or atomic coordinate data resulting
# from the CCDC's data processing and validation procedures.
#
#######################################################################

data_WIZMAV
_symmetry_cell_setting           cubic
_symmetry_space_group_name_H-M   'F m -3 m'
_symmetry_Int_Tables_number      225
_space_group_name_Hall           '-F 4 2 3'
loop_
_symmetry_equiv_pos_site_id
_symmetry_equiv_pos_as_xyz
1 x,y,z
2 -x,-y,z
3 -x,y,-z
4 x,-y,-z
5 z,x,y
6 z,-x,-y
7 -z,-x,y
8 -z,x,-y
9 y,z,x
10 -y,z,-x
11 y,-z,-x
12 -y,-z,x
13 y,x,-z
14 -y,-x,-z
15 y,-x,z
16 -y,x,z
17 x,z,-y
18 -x,z,y
19 -x,-z,-y
20 x,-z,y
21 z,y,-x
22 z,-y,x
23 -z,y,x
24 -z,-y,-x
25 x,1/2+y,1/2+z
26 -x,1/2-y,1/2+z
27 -x,1/2+y,1/2-z
28 x,1/2-y,1/2-z
29 z,1/2+x,1/2+y
30 z,1/2-x,1/2-y
31 -z,1/2-x,1/2+y
32 -z,1/2+x,1/2-y
33 y,1/2+z,1/2+x
34 -y,1/2+z,1/2-x
35 y,1/2-z,1/2-x
36 -y,1/2-z,1/2+x
37 y,1/2+x,1/2-z
38 -y,1/2-x,1/2-z
39 y,1/2-x,1/2+z
40 -y,1/2+x,1/2+z
41 x,1/2+z,1/2-y
42 -x,1/2+z,1/2+y
43 -x,1/2-z,1/2-y
44 x,1/2-z,1/2+y
45 z,1/2+y,1/2-x
46 z,1/2-y,1/2+x
47 -z,1/2+y,1/2+x
48 -z,1/2-y,1/2-x
49 1/2+x,y,1/2+z
50 1/2-x,-y,1/2+z
51 1/2-x,y,1/2-z
52 1/2+x,-y,1/2-z
53 1/2+z,x,1/2+y
54 1/2+z,-x,1/2-y
55 1/2-z,-x,1/2+y
56 1/2-z,x,1/2-y
57 1/2+y,z,1/2+x
58 1/2-y,z,1/2-x
59 1/2+y,-z,1/2-x
60 1/2-y,-z,1/2+x
61 1/2+y,x,1/2-z
62 1/2-y,-x,1/2-z
63 1/2+y,-x,1/2+z
64 1/2-y,x,1/2+z
65 1/2+x,z,1/2-y
66 1/2-x,z,1/2+y
67 1/2-x,-z,1/2-y
68 1/2+x,-z,1/2+y
69 1/2+z,y,1/2-x
70 1/2+z,-y,1/2+x
71 1/2-z,y,1/2+x
72 1/2-z,-y,1/2-x
73 1/2+x,1/2+y,z
74 1/2-x,1/2-y,z
75 1/2-x,1/2+y,-z
76 1/2+x,1/2-y,-z
77 1/2+z,1/2+x,y
78 1/2+z,1/2-x,-y
79 1/2-z,1/2-x,y
80 1/2-z,1/2+x,-y
81 1/2+y,1/2+z,x
82 1/2-y,1/2+z,-x
83 1/2+y,1/2-z,-x
84 1/2-y,1/2-z,x
85 1/2+y,1/2+x,-z
86 1/2-y,1/2-x,-z
87 1/2+y,1/2-x,z
88 1/2-y,1/2+x,z
89 1/2+x,1/2+z,-y
90 1/2-x,1/2+z,y
91 1/2-x,1/2-z,-y
92 1/2+x,1/2-z,y
93 1/2+z,1/2+y,-x
94 1/2+z,1/2-y,x
95 1/2-z,1/2+y,x
96 1/2-z,1/2-y,-x
97 -x,-y,-z
98 x,y,-z
99 x,-y,z
100 -x,y,z
101 -z,-x,-y
102 -z,x,y
103 z,x,-y
104 z,-x,y
105 -y,-z,-x
106 y,-z,x
107 -y,z,x
108 y,z,-x
109 -y,-x,z
110 y,x,z
111 -y,x,-z
112 y,-x,-z
113 -x,-z,y
114 x,-z,-y
115 x,z,y
116 -x,z,-y
117 -z,-y,x
118 -z,y,-x
119 z,-y,-x
120 z,y,x
121 -x,1/2-y,1/2-z
122 x,1/2+y,1/2-z
123 x,1/2-y,1/2+z
124 -x,1/2+y,1/2+z
125 -z,1/2-x,1/2-y
126 -z,1/2+x,1/2+y
127 z,1/2+x,1/2-y
128 z,1/2-x,1/2+y
129 -y,1/2-z,1/2-x
130 y,1/2-z,1/2+x
131 -y,1/2+z,1/2+x
132 y,1/2+z,1/2-x
133 -y,1/2-x,1/2+z
134 y,1/2+x,1/2+z
135 -y,1/2+x,1/2-z
136 y,1/2-x,1/2-z
137 -x,1/2-z,1/2+y
138 x,1/2-z,1/2-y
139 x,1/2+z,1/2+y
140 -x,1/2+z,1/2-y
141 -z,1/2-y,1/2+x
142 -z,1/2+y,1/2-x
143 z,1/2-y,1/2-x
144 z,1/2+y,1/2+x
145 1/2-x,-y,1/2-z
146 1/2+x,y,1/2-z
147 1/2+x,-y,1/2+z
148 1/2-x,y,1/2+z
149 1/2-z,-x,1/2-y
150 1/2-z,x,1/2+y
151 1/2+z,x,1/2-y
152 1/2+z,-x,1/2+y
153 1/2-y,-z,1/2-x
154 1/2+y,-z,1/2+x
155 1/2-y,z,1/2+x
156 1/2+y,z,1/2-x
157 1/2-y,-x,1/2+z
158 1/2+y,x,1/2+z
159 1/2-y,x,1/2-z
160 1/2+y,-x,1/2-z
161 1/2-x,-z,1/2+y
162 1/2+x,-z,1/2-y
163 1/2+x,z,1/2+y
164 1/2-x,z,1/2-y
165 1/2-z,-y,1/2+x
166 1/2-z,y,1/2-x
167 1/2+z,-y,1/2-x
168 1/2+z,y,1/2+x
169 1/2-x,1/2-y,-z
170 1/2+x,1/2+y,-z
171 1/2+x,1/2-y,z
172 1/2-x,1/2+y,z
173 1/2-z,1/2-x,-y
174 1/2-z,1/2+x,y
175 1/2+z,1/2+x,-y
176 1/2+z,1/2-x,y
177 1/2-y,1/2-z,-x
178 1/2+y,1/2-z,x
179 1/2-y,1/2+z,x
180 1/2+y,1/2+z,-x
181 1/2-y,1/2-x,z
182 1/2+y,1/2+x,z
183 1/2-y,1/2+x,-z
184 1/2+y,1/2-x,-z
185 1/2-x,1/2-z,y
186 1/2+x,1/2-z,-y
187 1/2+x,1/2+z,y
188 1/2-x,1/2+z,-y
189 1/2-z,1/2-y,x
190 1/2-z,1/2+y,-x
191 1/2+z,1/2-y,-x
192 1/2+z,1/2+y,x
_cell_length_a                   26.896
_cell_length_b                   26.896
_cell_length_c                   26.896
_cell_angle_alpha                90
_cell_angle_beta                 90
_cell_angle_gamma                90
_cell_volume                     19456.4
loop_
_atom_site_label
_atom_site_type_symbol
_atom_site_fract_x
_atom_site_fract_y
_atom_site_fract_z
Zr1 Zr 0.09204 0.0000 0.0000
O1 O 0.0454 0.0454 0.0454
O2 O 0.1326 0.0000 0.0719
C1 C 0.1172 0.0000 0.1172
C2 C 0.1565 0.0000 0.1565
C3 C 0.2058 0.0000 0.1447
H1 H 0.2149 0.0000 0.1114
C4 C 0.2420 0.0000 0.1795
H2 H 0.2751 0.0000 0.1695
C5 C 0.2307 0.0000 0.2307
O2U O 0.0719 0.0000 0.1326
C3U C 0.1447 0.0000 0.2058
H1U H 0.1114 0.0000 0.2149
C4U C 0.1795 0.0000 0.2420
H2U H 0.1695 0.0000 0.2751
O2XA O 0.3674 0.0000 0.4281
C1XA C 0.3828 0.0000 0.3828
C2XA C 0.3435 0.0000 0.3435
C3XA C 0.2942 0.0000 0.3553
H1XA H 0.2851 0.0000 0.3886
C4XA C 0.2580 0.0000 0.3205
H2XA H 0.2249 0.0000 0.3305
C5XA C 0.2693 0.0000 0.2693
O2SB O 0.4281 0.0000 0.3674
C3SB C 0.3553 0.0000 0.2942
H1SB H 0.3886 0.0000 0.2851
C4SB C 0.3205 0.0000 0.2580
H2SB H 0.3305 0.0000 0.2249
O1C O 0.0454 -0.0454 -0.0454
O2C O 0.1326 0.0000 -0.0719
C1C C 0.1172 0.0000 -0.1172
C2C C 0.1565 0.0000 -0.1565
C3C C 0.2058 0.0000 -0.1447
H1C H 0.2149 0.0000 -0.1114
C4C C 0.2420 0.0000 -0.1795
H2C H 0.2751 0.0000 -0.1695
C5C C 0.2307 0.0000 -0.2307
O2T O 0.0719 0.0000 -0.1326
C3T C 0.1447 0.0000 -0.2058
H1T H 0.1114 0.0000 -0.2149
C4T C 0.1795 0.0000 -0.2420
H2T H 0.1695 0.0000 -0.2751
O2WA O 0.3674 0.0000 -0.4281
C1WA C 0.3828 0.0000 -0.3828
C2WA C 0.3435 0.0000 -0.3435
C3WA C 0.2942 0.0000 -0.3553
H1WA H 0.2851 0.0000 -0.3886
C4WA C 0.2580 0.0000 -0.3205
H2WA H 0.2249 0.0000 -0.3305
C5WA C 0.2693 0.0000 -0.2693
O2RB O 0.4281 0.0000 -0.3674
C3RB C 0.3553 0.0000 -0.2942
H1RB H 0.3886 0.0000 -0.2851
C4RB C 0.3205 0.0000 -0.2580
H2RB H 0.3305 0.0000 -0.2249
Zr1D Zr 0.0000 0.09204 0.0000
O2D O 0.0719 0.1326 0.0000
C1D C 0.1172 0.1172 0.0000
C2D C 0.1565 0.1565 0.0000
C3D C 0.1447 0.2058 0.0000
H1D H 0.1114 0.2149 0.0000
C4D C 0.1795 0.2420 0.0000
H2D H 0.1695 0.2751 0.0000
C5D C 0.2307 0.2307 0.0000
O2P O 0.1326 0.0719 0.0000
C3P C 0.2058 0.1447 0.0000
H1P H 0.2149 0.1114 0.0000
C4P C 0.2420 0.1795 0.0000
H2P H 0.2751 0.1695 0.0000
O2ZB O 0.4281 0.3674 0.0000
C1ZB C 0.3828 0.3828 0.0000
C2ZB C 0.3435 0.3435 0.0000
C3ZB C 0.3553 0.2942 0.0000
H1ZB H 0.3886 0.2851 0.0000
C4ZB C 0.3205 0.2580 0.0000
H2ZB H 0.3305 0.2249 0.0000
C5ZB C 0.2693 0.2693 0.0000
O2LC O 0.3674 0.4281 0.0000
C3LC C 0.2942 0.3553 0.0000
H1LC H 0.2851 0.3886 0.0000
C4LC C 0.2580 0.3205 0.0000
H2LC H 0.2249 0.3305 0.0000
Zr1E Zr 0.0000 -0.09204 0.0000
O1A O -0.0454 -0.0454 0.0454
O1B O -0.0454 0.0454 -0.0454
Zr1A Zr -0.09204 0.0000 0.0000
Zr1H Zr 0.0000 0.0000 0.09204
Zr1I Zr 0.0000 0.0000 -0.09204
Zr1WA Zr 0.40796 0.0000 -0.5000
Zr1WA Zr 0.40796 0.0000 0.5000
Zr1DB Zr 0.5000 0.0000 -0.40796
Zr1EB Zr 0.5000 0.0000 0.40796
Zr1UB Zr 0.40796 0.5000 0.0000
Zr1YB Zr 0.5000 0.40796 0.0000
O1L O 0.0454 0.0454 -0.0454
O1M O -0.0454 -0.0454 -0.0454
O1N O 0.0454 -0.0454 0.0454
O1O O -0.0454 0.0454 0.0454
O2E O 0.0719 -0.1326 0.0000
O2F O -0.0719 -0.1326 0.0000
O2G O -0.0719 0.1326 0.0000
O2L O 0.0000 0.1326 -0.0719
O2M O 0.0000 -0.1326 -0.0719
O2N O 0.0000 -0.1326 0.0719
O2O O 0.0000 0.1326 0.0719
O2S O 0.1326 -0.0719 0.0000

#END
