#======================================================================

# CRYSTAL DATA

#----------------------------------------------------------------------

data_VESTA_phase_1


_chemical_name_common                  'WIZMAV'
_cell_length_a                         26.896(3)
_cell_length_b                         26.896(3)
_cell_length_c                         26.896(3)
_cell_angle_alpha                      90
_cell_angle_beta                       90
_cell_angle_gamma                      90
_space_group_name_H-M_alt              'F m -3 m'
_space_group_IT_number                 225

loop_
_space_group_symop_operation_xyz
   'x, y, z'
   '-x, -y, -z'
   '-x, -y, z'
   'x, y, -z'
   '-x, y, -z'
   'x, -y, z'
   'x, -y, -z'
   '-x, y, z'
   'z, x, y'
   '-z, -x, -y'
   'z, -x, -y'
   '-z, x, y'
   '-z, -x, y'
   'z, x, -y'
   '-z, x, -y'
   'z, -x, y'
   'y, z, x'
   '-y, -z, -x'
   '-y, z, -x'
   'y, -z, x'
   'y, -z, -x'
   '-y, z, x'
   '-y, -z, x'
   'y, z, -x'
   'y, x, -z'
   '-y, -x, z'
   '-y, -x, -z'
   'y, x, z'
   'y, -x, z'
   '-y, x, -z'
   '-y, x, z'
   'y, -x, -z'
   'x, z, -y'
   '-x, -z, y'
   '-x, z, y'
   'x, -z, -y'
   '-x, -z, -y'
   'x, z, y'
   'x, -z, y'
   '-x, z, -y'
   'z, y, -x'
   '-z, -y, x'
   'z, -y, x'
   '-z, y, -x'
   '-z, y, x'
   'z, -y, -x'
   '-z, -y, -x'
   'z, y, x'
   'x, y+1/2, z+1/2'
   '-x, -y+1/2, -z+1/2'
   '-x, -y+1/2, z+1/2'
   'x, y+1/2, -z+1/2'
   '-x, y+1/2, -z+1/2'
   'x, -y+1/2, z+1/2'
   'x, -y+1/2, -z+1/2'
   '-x, y+1/2, z+1/2'
   'z, x+1/2, y+1/2'
   '-z, -x+1/2, -y+1/2'
   'z, -x+1/2, -y+1/2'
   '-z, x+1/2, y+1/2'
   '-z, -x+1/2, y+1/2'
   'z, x+1/2, -y+1/2'
   '-z, x+1/2, -y+1/2'
   'z, -x+1/2, y+1/2'
   'y, z+1/2, x+1/2'
   '-y, -z+1/2, -x+1/2'
   '-y, z+1/2, -x+1/2'
   'y, -z+1/2, x+1/2'
   'y, -z+1/2, -x+1/2'
   '-y, z+1/2, x+1/2'
   '-y, -z+1/2, x+1/2'
   'y, z+1/2, -x+1/2'
   'y, x+1/2, -z+1/2'
   '-y, -x+1/2, z+1/2'
   '-y, -x+1/2, -z+1/2'
   'y, x+1/2, z+1/2'
   'y, -x+1/2, z+1/2'
   '-y, x+1/2, -z+1/2'
   '-y, x+1/2, z+1/2'
   'y, -x+1/2, -z+1/2'
   'x, z+1/2, -y+1/2'
   '-x, -z+1/2, y+1/2'
   '-x, z+1/2, y+1/2'
   'x, -z+1/2, -y+1/2'
   '-x, -z+1/2, -y+1/2'
   'x, z+1/2, y+1/2'
   'x, -z+1/2, y+1/2'
   '-x, z+1/2, -y+1/2'
   'z, y+1/2, -x+1/2'
   '-z, -y+1/2, x+1/2'
   'z, -y+1/2, x+1/2'
   '-z, y+1/2, -x+1/2'
   '-z, y+1/2, x+1/2'
   'z, -y+1/2, -x+1/2'
   '-z, -y+1/2, -x+1/2'
   'z, y+1/2, x+1/2'
   'x+1/2, y, z+1/2'
   '-x+1/2, -y, -z+1/2'
   '-x+1/2, -y, z+1/2'
   'x+1/2, y, -z+1/2'
   '-x+1/2, y, -z+1/2'
   'x+1/2, -y, z+1/2'
   'x+1/2, -y, -z+1/2'
   '-x+1/2, y, z+1/2'
   'z+1/2, x, y+1/2'
   '-z+1/2, -x, -y+1/2'
   'z+1/2, -x, -y+1/2'
   '-z+1/2, x, y+1/2'
   '-z+1/2, -x, y+1/2'
   'z+1/2, x, -y+1/2'
   '-z+1/2, x, -y+1/2'
   'z+1/2, -x, y+1/2'
   'y+1/2, z, x+1/2'
   '-y+1/2, -z, -x+1/2'
   '-y+1/2, z, -x+1/2'
   'y+1/2, -z, x+1/2'
   'y+1/2, -z, -x+1/2'
   '-y+1/2, z, x+1/2'
   '-y+1/2, -z, x+1/2'
   'y+1/2, z, -x+1/2'
   'y+1/2, x, -z+1/2'
   '-y+1/2, -x, z+1/2'
   '-y+1/2, -x, -z+1/2'
   'y+1/2, x, z+1/2'
   'y+1/2, -x, z+1/2'
   '-y+1/2, x, -z+1/2'
   '-y+1/2, x, z+1/2'
   'y+1/2, -x, -z+1/2'
   'x+1/2, z, -y+1/2'
   '-x+1/2, -z, y+1/2'
   '-x+1/2, z, y+1/2'
   'x+1/2, -z, -y+1/2'
   '-x+1/2, -z, -y+1/2'
   'x+1/2, z, y+1/2'
   'x+1/2, -z, y+1/2'
   '-x+1/2, z, -y+1/2'
   'z+1/2, y, -x+1/2'
   '-z+1/2, -y, x+1/2'
   'z+1/2, -y, x+1/2'
   '-z+1/2, y, -x+1/2'
   '-z+1/2, y, x+1/2'
   'z+1/2, -y, -x+1/2'
   '-z+1/2, -y, -x+1/2'
   'z+1/2, y, x+1/2'
   'x+1/2, y+1/2, z'
   '-x+1/2, -y+1/2, -z'
   '-x+1/2, -y+1/2, z'
   'x+1/2, y+1/2, -z'
   '-x+1/2, y+1/2, -z'
   'x+1/2, -y+1/2, z'
   'x+1/2, -y+1/2, -z'
   '-x+1/2, y+1/2, z'
   'z+1/2, x+1/2, y'
   '-z+1/2, -x+1/2, -y'
   'z+1/2, -x+1/2, -y'
   '-z+1/2, x+1/2, y'
   '-z+1/2, -x+1/2, y'
   'z+1/2, x+1/2, -y'
   '-z+1/2, x+1/2, -y'
   'z+1/2, -x+1/2, y'
   'y+1/2, z+1/2, x'
   '-y+1/2, -z+1/2, -x'
   '-y+1/2, z+1/2, -x'
   'y+1/2, -z+1/2, x'
   'y+1/2, -z+1/2, -x'
   '-y+1/2, z+1/2, x'
   '-y+1/2, -z+1/2, x'
   'y+1/2, z+1/2, -x'
   'y+1/2, x+1/2, -z'
   '-y+1/2, -x+1/2, z'
   '-y+1/2, -x+1/2, -z'
   'y+1/2, x+1/2, z'
   'y+1/2, -x+1/2, z'
   '-y+1/2, x+1/2, -z'
   '-y+1/2, x+1/2, z'
   'y+1/2, -x+1/2, -z'
   'x+1/2, z+1/2, -y'
   '-x+1/2, -z+1/2, y'
   '-x+1/2, z+1/2, y'
   'x+1/2, -z+1/2, -y'
   '-x+1/2, -z+1/2, -y'
   'x+1/2, z+1/2, y'
   'x+1/2, -z+1/2, y'
   '-x+1/2, z+1/2, -y'
   'z+1/2, y+1/2, -x'
   '-z+1/2, -y+1/2, x'
   'z+1/2, -y+1/2, x'
   '-z+1/2, y+1/2, -x'
   '-z+1/2, y+1/2, x'
   'z+1/2, -y+1/2, -x'
   '-z+1/2, -y+1/2, -x'
   'z+1/2, y+1/2, x'

loop_
   _atom_site_label
   _atom_site_occupancy
   _atom_site_fract_x
   _atom_site_fract_y
   _atom_site_fract_z
   _atom_site_adp_type
   _atom_site_B_iso_or_equiv
   _atom_site_type_symbol
   Zr1        1.0     0.09204(6)    0.000000      0.000000     Biso  1.000000 Zr
   O1         1.0     0.0454(4)     0.0454(4)     0.0454(4)    Biso  1.000000 O
   O2         1.0     0.1326(2)     0.000000      0.0719(2)    Biso  1.000000 O
   C1         1.0     0.1172(4)     0.000000      0.1172(4)    Biso  1.000000 C
   C2         1.0     0.1565(4)     0.000000      0.1565(4)    Biso  1.000000 C
   C3         1.0     0.2058(5)     0.000000      0.1447(5)    Biso  1.000000 C
   H1         1.0     0.214900      0.000000      0.111400     Biso  1.000000 H
   C4         1.0     0.2420(5)     0.000000      0.1795(5)    Biso  1.000000 C
   H2         1.0     0.275100      0.000000      0.169500     Biso  1.000000 H
   C5         1.0     0.2307(4)     0.000000      0.2307(4)    Biso  1.000000 C
   O2U        1.0     0.0719(2)     0.000000      0.1326(2)    Biso  1.000000 O
   C3U        1.0     0.1447(5)     0.000000      0.2058(5)    Biso  1.000000 C
   H1U        1.0     0.111400      0.000000      0.214900     Biso  1.000000 H
   C4U        1.0     0.1795(5)     0.000000      0.2420(5)    Biso  1.000000 C
   H2U        1.0     0.169500      0.000000      0.275100     Biso  1.000000 H
   O2XA       1.0     0.3674(2)     0.000000      0.4281(2)    Biso  1.000000 O
   C1XA       1.0     0.3828(4)     0.000000      0.3828(4)    Biso  1.000000 C
   C2XA       1.0     0.3435(4)     0.000000      0.3435(4)    Biso  1.000000 C
   C3XA       1.0     0.2942(5)     0.000000      0.3553(5)    Biso  1.000000 C
   H1XA       1.0     0.285100      0.000000      0.388600     Biso  1.000000 H
   C4XA       1.0     0.2580(5)     0.000000      0.3205(5)    Biso  1.000000 C
   H2XA       1.0     0.224900      0.000000      0.330500     Biso  1.000000 H
   C5XA       1.0     0.2693(4)     0.000000      0.2693(4)    Biso  1.000000 C
   O2SB       1.0     0.4281(2)     0.000000      0.3674(2)    Biso  1.000000 O
   C3SB       1.0     0.3553(5)     0.000000      0.2942(5)    Biso  1.000000 C
   H1SB       1.0     0.388600      0.000000      0.285100     Biso  1.000000 H
   C4SB       1.0     0.3205(5)     0.000000      0.2580(5)    Biso  1.000000 C
   H2SB       1.0     0.330500      0.000000      0.224900     Biso  1.000000 H
   O1C        1.0     0.0454(4)    -0.0454(4)    -0.0454(4)    Biso  1.000000 O
   O2C        1.0     0.1326(2)     0.000000     -0.0719(2)    Biso  1.000000 O
   C1C        1.0     0.1172(4)     0.000000     -0.1172(4)    Biso  1.000000 C
   C2C        1.0     0.1565(4)     0.000000     -0.1565(4)    Biso  1.000000 C
   C3C        1.0     0.2058(5)     0.000000     -0.1447(5)    Biso  1.000000 C
   H1C        1.0     0.214900      0.000000     -0.111400     Biso  1.000000 H
   C4C        1.0     0.2420(5)     0.000000     -0.1795(5)    Biso  1.000000 C
   H2C        1.0     0.275100      0.000000     -0.169500     Biso  1.000000 H
   C5C        1.0     0.2307(4)     0.000000     -0.2307(4)    Biso  1.000000 C
   O2T        1.0     0.0719(2)     0.000000     -0.1326(2)    Biso  1.000000 O
   C3T        1.0     0.1447(5)     0.000000     -0.2058(5)    Biso  1.000000 C
   H1T        1.0     0.111400      0.000000     -0.214900     Biso  1.000000 H
   C4T        1.0     0.1795(5)     0.000000     -0.2420(5)    Biso  1.000000 C
   H2T        1.0     0.169500      0.000000     -0.275100     Biso  1.000000 H
   O2WA       1.0     0.3674(2)     0.000000     -0.4281(2)    Biso  1.000000 O
   C1WA       1.0     0.3828(4)     0.000000     -0.3828(4)    Biso  1.000000 C
   C2WA       1.0     0.3435(4)     0.000000     -0.3435(4)    Biso  1.000000 C
   C3WA       1.0     0.2942(5)     0.000000     -0.3553(5)    Biso  1.000000 C
   H1WA       1.0     0.285100      0.000000     -0.388600     Biso  1.000000 H
   C4WA       1.0     0.2580(5)     0.000000     -0.3205(5)    Biso  1.000000 C
   H2WA       1.0     0.224900      0.000000     -0.330500     Biso  1.000000 H
   C5WA       1.0     0.2693(4)     0.000000     -0.2693(4)    Biso  1.000000 C
   O2RB       1.0     0.4281(2)     0.000000     -0.3674(2)    Biso  1.000000 O
   C3RB       1.0     0.3553(5)     0.000000     -0.2942(5)    Biso  1.000000 C
   H1RB       1.0     0.388600      0.000000     -0.285100     Biso  1.000000 H
   C4RB       1.0     0.3205(5)     0.000000     -0.2580(5)    Biso  1.000000 C
   H2RB       1.0     0.330500      0.000000     -0.224900     Biso  1.000000 H
   Zr1D       1.0     0.000000      0.09204(6)    0.000000     Biso  1.000000 Zr
   O2D        1.0     0.0719(2)     0.1326(2)     0.000000     Biso  1.000000 O
   C1D        1.0     0.1172(4)     0.1172(4)     0.000000     Biso  1.000000 C
   C2D        1.0     0.1565(4)     0.1565(4)     0.000000     Biso  1.000000 C
   C3D        1.0     0.1447(5)     0.2058(5)     0.000000     Biso  1.000000 C
   H1D        1.0     0.111400      0.214900      0.000000     Biso  1.000000 H
   C4D        1.0     0.1795(5)     0.2420(5)     0.000000     Biso  1.000000 C
   H2D        1.0     0.169500      0.275100      0.000000     Biso  1.000000 H
   C5D        1.0     0.2307(4)     0.2307(4)     0.000000     Biso  1.000000 C
   O2P        1.0     0.1326(2)     0.0719(2)     0.000000     Biso  1.000000 O
   C3P        1.0     0.2058(5)     0.1447(5)     0.000000     Biso  1.000000 C
   H1P        1.0     0.214900      0.111400      0.000000     Biso  1.000000 H
   C4P        1.0     0.2420(5)     0.1795(5)     0.000000     Biso  1.000000 C
   H2P        1.0     0.275100      0.169500      0.000000     Biso  1.000000 H
   O2ZB       1.0     0.4281(2)     0.3674(2)     0.000000     Biso  1.000000 O
   C1ZB       1.0     0.3828(4)     0.3828(4)     0.000000     Biso  1.000000 C
   C2ZB       1.0     0.3435(4)     0.3435(4)     0.000000     Biso  1.000000 C
   C3ZB       1.0     0.3553(5)     0.2942(5)     0.000000     Biso  1.000000 C
   H1ZB       1.0     0.388600      0.285100      0.000000     Biso  1.000000 H
   C4ZB       1.0     0.3205(5)     0.2580(5)     0.000000     Biso  1.000000 C
   H2ZB       1.0     0.330500      0.224900      0.000000     Biso  1.000000 H
   C5ZB       1.0     0.2693(4)     0.2693(4)     0.000000     Biso  1.000000 C
   O2LC       1.0     0.3674(2)     0.4281(2)     0.000000     Biso  1.000000 O
   C3LC       1.0     0.2942(5)     0.3553(5)     0.000000     Biso  1.000000 C
   H1LC       1.0     0.285100      0.388600      0.000000     Biso  1.000000 H
   C4LC       1.0     0.2580(5)     0.3205(5)     0.000000     Biso  1.000000 C
   H2LC       1.0     0.224900      0.330500      0.000000     Biso  1.000000 H
   Zr1E       1.0     0.000000     -0.09204(6)    0.000000     Biso  1.000000 Zr
   O1A        1.0    -0.0454(4)    -0.0454(4)     0.0454(4)    Biso  1.000000 O
   O1B        1.0    -0.0454(4)     0.0454(4)    -0.0454(4)    Biso  1.000000 O
   Zr1A       1.0    -0.09204(6)    0.000000      0.000000     Biso  1.000000 Zr
   Zr1H       1.0     0.000000      0.000000      0.09204(6)   Biso  1.000000 Zr
   Zr1I       1.0     0.000000      0.000000     -0.09204(6)   Biso  1.000000 Zr
   Zr1WA      1.0     0.40796(6)    0.000000     -0.500000     Biso  1.000000 Zr
   Zr1WA      1.0     0.40796(6)    0.000000      0.500000     Biso  1.000000 Zr
   Zr1DB      1.0     0.500000      0.000000     -0.40796(6)   Biso  1.000000 Zr
   Zr1EB      1.0     0.500000      0.000000      0.40796(6)   Biso  1.000000 Zr
   Zr1UB      1.0     0.40796(6)    0.500000      0.000000     Biso  1.000000 Zr
   Zr1YB      1.0     0.500000      0.40796(6)    0.000000     Biso  1.000000 Zr
   O1L        1.0     0.0454(4)     0.0454(4)    -0.0454(4)    Biso  1.000000 O
   O1M        1.0    -0.0454(4)    -0.0454(4)    -0.0454(4)    Biso  1.000000 O
   O1N        1.0     0.0454(4)    -0.0454(4)     0.0454(4)    Biso  1.000000 O
   O1O        1.0    -0.0454(4)     0.0454(4)     0.0454(4)    Biso  1.000000 O
   O2E        1.0     0.0719(2)    -0.1326(2)     0.000000     Biso  1.000000 O
   O2F        1.0    -0.0719(2)    -0.1326(2)     0.000000     Biso  1.000000 O
   O2G        1.0    -0.0719(2)     0.1326(2)     0.000000     Biso  1.000000 O
   O2L        1.0     0.000000      0.1326(2)    -0.0719(2)    Biso  1.000000 O
   O2M        1.0     0.000000     -0.1326(2)    -0.0719(2)    Biso  1.000000 O
   O2N        1.0     0.000000     -0.1326(2)     0.0719(2)    Biso  1.000000 O
   O2O        1.0     0.000000      0.1326(2)     0.0719(2)    Biso  1.000000 O
   O2S        1.0     0.1326(2)    -0.0719(2)     0.000000     Biso  1.000000 O
