data_image0
_cell_length_a       26.896
_cell_length_b       26.896
_cell_length_c       26.896
_cell_angle_alpha    90
_cell_angle_beta     90
_cell_angle_gamma    90

_symmetry_space_group_name_H-M    "P 1"
_symmetry_int_tables_number       1

loop_
  _symmetry_equiv_pos_as_xyz
  'x, y, z'

loop_
  _atom_site_label
  _atom_site_occupancy
  _atom_site_fract_x
  _atom_site_fract_y
  _atom_site_fract_z
  _atom_site_thermal_displace_type
  _atom_site_B_iso_or_equiv
  _atom_site_type_symbol
  B1       1.0000 0.09204  0.00000  0.00000  Biso   1.000  B 
  B2       1.0000 0.90796  0.00000  0.00000  Biso   1.000  B 
  B3       1.0000 0.00000  0.09204  0.00000  Biso   1.000  B 
  B4       1.0000 0.00000  0.90796  0.00000  Biso   1.000  B 
  B5       1.0000 0.00000  0.00000  0.09204  Biso   1.000  B 
  B6       1.0000 0.00000  0.00000  0.90796  Biso   1.000  B 
  B7       1.0000 0.09204  0.50000  0.50000  Biso   1.000  B 
  B8       1.0000 0.90796  0.50000  0.50000  Biso   1.000  B 
  B9       1.0000 0.00000  0.59204  0.50000  Biso   1.000  B 
  B10      1.0000 0.00000  0.40796  0.50000  Biso   1.000  B 
  B11      1.0000 0.00000  0.50000  0.59204  Biso   1.000  B 
  B12      1.0000 0.00000  0.50000  0.40796  Biso   1.000  B 
  B13      1.0000 0.59204  0.00000  0.50000  Biso   1.000  B 
  B14      1.0000 0.40796  0.00000  0.50000  Biso   1.000  B 
  B15      1.0000 0.50000  0.09204  0.50000  Biso   1.000  B 
  B16      1.0000 0.50000  0.90796  0.50000  Biso   1.000  B 
  B17      1.0000 0.50000  0.00000  0.59204  Biso   1.000  B 
  B18      1.0000 0.50000  0.00000  0.40796  Biso   1.000  B 
  B19      1.0000 0.59204  0.50000  0.00000  Biso   1.000  B 
  B20      1.0000 0.40796  0.50000  0.00000  Biso   1.000  B 
  B21      1.0000 0.50000  0.59204  0.00000  Biso   1.000  B 
  B22      1.0000 0.50000  0.40796  0.00000  Biso   1.000  B 
  B23      1.0000 0.50000  0.50000  0.09204  Biso   1.000  B 
  B24      1.0000 0.50000  0.50000  0.90796  Biso   1.000  B 
  B25      1.0000 0.04540  0.04540  0.04540  Biso   1.000  B 
  B26      1.0000 0.95460  0.95460  0.04540  Biso   1.000  B 
  B27      1.0000 0.95460  0.04540  0.95460  Biso   1.000  B 
  B28      1.0000 0.04540  0.95460  0.95460  Biso   1.000  B 
  B29      1.0000 0.04540  0.04540  0.95460  Biso   1.000  B 
  B30      1.0000 0.95460  0.95460  0.95460  Biso   1.000  B 
  B31      1.0000 0.04540  0.95460  0.04540  Biso   1.000  B 
  B32      1.0000 0.95460  0.04540  0.04540  Biso   1.000  B 
  B33      1.0000 0.04540  0.54540  0.54540  Biso   1.000  B 
  B34      1.0000 0.95460  0.45460  0.54540  Biso   1.000  B 
  B35      1.0000 0.95460  0.54540  0.45460  Biso   1.000  B 
  B36      1.0000 0.04540  0.45460  0.45460  Biso   1.000  B 
  B37      1.0000 0.04540  0.54540  0.45460  Biso   1.000  B 
  B38      1.0000 0.95460  0.45460  0.45460  Biso   1.000  B 
  B39      1.0000 0.04540  0.45460  0.54540  Biso   1.000  B 
  B40      1.0000 0.95460  0.54540  0.54540  Biso   1.000  B 
  B41      1.0000 0.54540  0.04540  0.54540  Biso   1.000  B 
  B42      1.0000 0.45460  0.95460  0.54540  Biso   1.000  B 
  B43      1.0000 0.45460  0.04540  0.45460  Biso   1.000  B 
  B44      1.0000 0.54540  0.95460  0.45460  Biso   1.000  B 
  B45      1.0000 0.54540  0.04540  0.45460  Biso   1.000  B 
  B46      1.0000 0.45460  0.95460  0.45460  Biso   1.000  B 
  B47      1.0000 0.54540  0.95460  0.54540  Biso   1.000  B 
  B48      1.0000 0.45460  0.04540  0.54540  Biso   1.000  B 
  B49      1.0000 0.54540  0.54540  0.04540  Biso   1.000  B 
  B50      1.0000 0.45460  0.45460  0.04540  Biso   1.000  B 
  B51      1.0000 0.45460  0.54540  0.95460  Biso   1.000  B 
  B52      1.0000 0.54540  0.45460  0.95460  Biso   1.000  B 
  B53      1.0000 0.54540  0.54540  0.95460  Biso   1.000  B 
  B54      1.0000 0.45460  0.45460  0.95460  Biso   1.000  B 
  B55      1.0000 0.54540  0.45460  0.04540  Biso   1.000  B 
  B56      1.0000 0.45460  0.54540  0.04540  Biso   1.000  B 
  B57      1.0000 0.13260  0.00000  0.07190  Biso   1.000  B 
  B58      1.0000 0.11720  0.00000  0.11720  Biso   1.000  B 
  B59      1.0000 0.07190  0.00000  0.13260  Biso   1.000  B 
  B60      1.0000 0.15650  0.00000  0.15650  Biso   1.000  B 
  B61      1.0000 0.20580  0.00000  0.14470  Biso   1.000  B 
  B62      1.0000 0.14470  0.00000  0.20580  Biso   1.000  B 
  B63      1.0000 0.24200  0.00000  0.17950  Biso   1.000  B 
  B64      1.0000 0.21490  0.00000  0.11140  Biso   1.000  B 
  B65      1.0000 0.17950  0.00000  0.24200  Biso   1.000  B 
  O1       1.0000 0.09276  0.99266  0.22205  Biso   1.000  O 
  B66      1.0000 0.23070  0.00000  0.23070  Biso   1.000  B 
  B67      1.0000 0.26930  0.00000  0.26930  Biso   1.000  B 
  B68      1.0000 0.27510  0.00000  0.16950  Biso   1.000  B 
  B69      1.0000 0.32050  0.00000  0.25800  Biso   1.000  B 
  B70      1.0000 0.16950  0.00000  0.27510  Biso   1.000  B 
  B71      1.0000 0.25800  0.00000  0.32050  Biso   1.000  B 
  B72      1.0000 0.35530  0.00000  0.29420  Biso   1.000  B 
  B73      1.0000 0.33050  0.00000  0.22490  Biso   1.000  B 
  B74      1.0000 0.29420  0.00000  0.35530  Biso   1.000  B 
  B75      1.0000 0.22490  0.00000  0.33050  Biso   1.000  B 
  B76      1.0000 0.34350  0.00000  0.34350  Biso   1.000  B 
  B77      1.0000 0.38280  0.00000  0.38280  Biso   1.000  B 
  O2       1.0000 0.40770  0.00295  0.28100  Biso   1.000  O 
  B78      1.0000 0.28510  0.00000  0.38860  Biso   1.000  B 
  B79      1.0000 0.42810  0.00000  0.36740  Biso   1.000  B 
  B80      1.0000 0.36740  0.00000  0.42810  Biso   1.000  B 
  C1       1.0000 0.41980  0.05338  0.26886  Biso   1.000  C 
  C2       1.0000 0.07003  0.03929  0.23314  Biso   1.000  C 
  C3       1.0000 0.44745  0.05342  0.21593  Biso   1.000  C 
  H1       1.0000 0.43874  0.06688  0.30377  Biso   1.000  H 
  H2       1.0000 0.38500  0.07623  0.26537  Biso   1.000  H 
  H3       1.0000 0.45847  0.09283  0.20705  Biso   1.000  H 
  C4       1.0000 0.41516  0.03767  0.17285  Biso   1.000  C 
  H4       1.0000 0.48154  0.03175  0.21559  Biso   1.000  H 
  H5       1.0000 0.40641  0.99692  0.17297  Biso   1.000  H 
  H6       1.0000 0.43312  0.04512  0.13814  Biso   1.000  H 
  C5       1.0000 0.07570  0.05585  0.28778  Biso   1.000  C 
  H7       1.0000 0.02957  0.03389  0.22677  Biso   1.000  H 
  H8       1.0000 0.08312  0.06978  0.20808  Biso   1.000  H 
  C6       1.0000 0.06863  0.01339  0.32450  Biso   1.000  C 
  H9       1.0000 0.04838  0.08581  0.29632  Biso   1.000  H 
  H10      1.0000 0.11336  0.07145  0.29253  Biso   1.000  H 
  H11      1.0000 0.04876  0.98138  0.30746  Biso   1.000  H 
  H12      1.0000 0.10488  0.00045  0.33890  Biso   1.000  H 
  H13      1.0000 0.37969  0.06114  0.17528  Biso   1.000  H 
  H14      1.0000 0.04635  0.02723  0.35619  Biso   1.000  H 
  B81      1.0000 0.86740  0.00000  0.07190  Biso   1.000  B 
  B82      1.0000 0.88280  0.00000  0.11720  Biso   1.000  B 
  B83      1.0000 0.92810  0.00000  0.13260  Biso   1.000  B 
  B84      1.0000 0.84350  0.00000  0.15650  Biso   1.000  B 
  B85      1.0000 0.79420  0.00000  0.14470  Biso   1.000  B 
  B86      1.0000 0.85530  0.00000  0.20580  Biso   1.000  B 
  B87      1.0000 0.75800  0.00000  0.17950  Biso   1.000  B 
  B88      1.0000 0.78510  0.00000  0.11140  Biso   1.000  B 
  B89      1.0000 0.82050  0.00000  0.24200  Biso   1.000  B 
  O3       1.0000 0.90724  0.00734  0.22205  Biso   1.000  O 
  B90      1.0000 0.76930  0.00000  0.23070  Biso   1.000  B 
  B91      1.0000 0.73070  0.00000  0.26930  Biso   1.000  B 
  B92      1.0000 0.72490  0.00000  0.16950  Biso   1.000  B 
  B93      1.0000 0.67950  0.00000  0.25800  Biso   1.000  B 
  B94      1.0000 0.83050  0.00000  0.27510  Biso   1.000  B 
  B95      1.0000 0.74200  0.00000  0.32050  Biso   1.000  B 
  B96      1.0000 0.64470  0.00000  0.29420  Biso   1.000  B 
  B97      1.0000 0.66950  0.00000  0.22490  Biso   1.000  B 
  B98      1.0000 0.70580  0.00000  0.35530  Biso   1.000  B 
  B99      1.0000 0.77510  0.00000  0.33050  Biso   1.000  B 
  B100     1.0000 0.65650  0.00000  0.34350  Biso   1.000  B 
  B101     1.0000 0.61720  0.00000  0.38280  Biso   1.000  B 
  O4       1.0000 0.59230  0.99704  0.28100  Biso   1.000  O 
  B102     1.0000 0.71490  0.00000  0.38860  Biso   1.000  B 
  B103     1.0000 0.57190  0.00000  0.36740  Biso   1.000  B 
  B104     1.0000 0.63260  0.00000  0.42810  Biso   1.000  B 
  C7       1.0000 0.58020  0.94662  0.26886  Biso   1.000  C 
  C8       1.0000 0.92997  0.96071  0.23314  Biso   1.000  C 
  C9       1.0000 0.55255  0.94658  0.21593  Biso   1.000  C 
  H15      1.0000 0.56126  0.93312  0.30377  Biso   1.000  H 
  H16      1.0000 0.61500  0.92377  0.26537  Biso   1.000  H 
  H17      1.0000 0.54153  0.90717  0.20705  Biso   1.000  H 
  C10      1.0000 0.58484  0.96233  0.17285  Biso   1.000  C 
  H18      1.0000 0.51846  0.96826  0.21559  Biso   1.000  H 
  H19      1.0000 0.59359  0.00308  0.17297  Biso   1.000  H 
  H20      1.0000 0.56688  0.95488  0.13814  Biso   1.000  H 
  C11      1.0000 0.92430  0.94415  0.28778  Biso   1.000  C 
  H21      1.0000 0.97043  0.96611  0.22677  Biso   1.000  H 
  H22      1.0000 0.91688  0.93022  0.20808  Biso   1.000  H 
  C12      1.0000 0.93137  0.98661  0.32450  Biso   1.000  C 
  H23      1.0000 0.95162  0.91419  0.29632  Biso   1.000  H 
  H24      1.0000 0.88664  0.92855  0.29253  Biso   1.000  H 
  H25      1.0000 0.95123  0.01862  0.30746  Biso   1.000  H 
  H26      1.0000 0.89512  0.99955  0.33890  Biso   1.000  H 
  H27      1.0000 0.62031  0.93886  0.17528  Biso   1.000  H 
  H28      1.0000 0.95364  0.97277  0.35619  Biso   1.000  H 
  B105     1.0000 0.86740  0.00000  0.92810  Biso   1.000  B 
  B106     1.0000 0.88280  0.00000  0.88280  Biso   1.000  B 
  B107     1.0000 0.92810  0.00000  0.86740  Biso   1.000  B 
  B108     1.0000 0.84350  0.00000  0.84350  Biso   1.000  B 
  B109     1.0000 0.79420  0.00000  0.85530  Biso   1.000  B 
  B110     1.0000 0.85530  0.00000  0.79420  Biso   1.000  B 
  B111     1.0000 0.75800  0.00000  0.82050  Biso   1.000  B 
  B112     1.0000 0.78510  0.00000  0.88860  Biso   1.000  B 
  B113     1.0000 0.82050  0.00000  0.75800  Biso   1.000  B 
  O5       1.0000 0.90724  0.99266  0.77794  Biso   1.000  O 
  B114     1.0000 0.76930  0.00000  0.76930  Biso   1.000  B 
  B115     1.0000 0.73070  0.00000  0.73070  Biso   1.000  B 
  B116     1.0000 0.72490  0.00000  0.83050  Biso   1.000  B 
  B117     1.0000 0.67950  0.00000  0.74200  Biso   1.000  B 
  B118     1.0000 0.83050  0.00000  0.72490  Biso   1.000  B 
  B119     1.0000 0.74200  0.00000  0.67950  Biso   1.000  B 
  B120     1.0000 0.64470  0.00000  0.70580  Biso   1.000  B 
  B121     1.0000 0.66950  0.00000  0.77510  Biso   1.000  B 
  B122     1.0000 0.70580  0.00000  0.64470  Biso   1.000  B 
  B123     1.0000 0.77510  0.00000  0.66950  Biso   1.000  B 
  B124     1.0000 0.65650  0.00000  0.65650  Biso   1.000  B 
  B125     1.0000 0.61720  0.00000  0.61720  Biso   1.000  B 
  O6       1.0000 0.59230  0.00295  0.71900  Biso   1.000  O 
  B126     1.0000 0.71490  0.00000  0.61140  Biso   1.000  B 
  B127     1.0000 0.57190  0.00000  0.63260  Biso   1.000  B 
  B128     1.0000 0.63260  0.00000  0.57190  Biso   1.000  B 
  C13      1.0000 0.58020  0.05338  0.73114  Biso   1.000  C 
  C14      1.0000 0.92997  0.03929  0.76686  Biso   1.000  C 
  C15      1.0000 0.55255  0.05342  0.78407  Biso   1.000  C 
  H29      1.0000 0.56126  0.06688  0.69623  Biso   1.000  H 
  H30      1.0000 0.61500  0.07623  0.73463  Biso   1.000  H 
  H31      1.0000 0.54153  0.09283  0.79295  Biso   1.000  H 
  C16      1.0000 0.58484  0.03767  0.82715  Biso   1.000  C 
  H32      1.0000 0.51846  0.03175  0.78441  Biso   1.000  H 
  H33      1.0000 0.59359  0.99692  0.82703  Biso   1.000  H 
  H34      1.0000 0.56688  0.04512  0.86186  Biso   1.000  H 
  C17      1.0000 0.92430  0.05585  0.71222  Biso   1.000  C 
  H35      1.0000 0.97043  0.03389  0.77323  Biso   1.000  H 
  H36      1.0000 0.91688  0.06978  0.79192  Biso   1.000  H 
  C18      1.0000 0.93137  0.01339  0.67550  Biso   1.000  C 
  H37      1.0000 0.95162  0.08581  0.70368  Biso   1.000  H 
  H38      1.0000 0.88664  0.07145  0.70747  Biso   1.000  H 
  H39      1.0000 0.95123  0.98138  0.69254  Biso   1.000  H 
  H40      1.0000 0.89512  0.00045  0.66110  Biso   1.000  H 
  H41      1.0000 0.62031  0.06114  0.82472  Biso   1.000  H 
  H42      1.0000 0.95364  0.02723  0.64381  Biso   1.000  H 
  B129     1.0000 0.13260  0.00000  0.92810  Biso   1.000  B 
  B130     1.0000 0.11720  0.00000  0.88280  Biso   1.000  B 
  B131     1.0000 0.07190  0.00000  0.86740  Biso   1.000  B 
  B132     1.0000 0.15650  0.00000  0.84350  Biso   1.000  B 
  B133     1.0000 0.20580  0.00000  0.85530  Biso   1.000  B 
  B134     1.0000 0.14470  0.00000  0.79420  Biso   1.000  B 
  B135     1.0000 0.24200  0.00000  0.82050  Biso   1.000  B 
  B136     1.0000 0.21490  0.00000  0.88860  Biso   1.000  B 
  B137     1.0000 0.17950  0.00000  0.75800  Biso   1.000  B 
  O7       1.0000 0.09276  0.00734  0.77794  Biso   1.000  O 
  B138     1.0000 0.23070  0.00000  0.76930  Biso   1.000  B 
  B139     1.0000 0.26930  0.00000  0.73070  Biso   1.000  B 
  B140     1.0000 0.27510  0.00000  0.83050  Biso   1.000  B 
  B141     1.0000 0.32050  0.00000  0.74200  Biso   1.000  B 
  B142     1.0000 0.16950  0.00000  0.72490  Biso   1.000  B 
  B143     1.0000 0.25800  0.00000  0.67950  Biso   1.000  B 
  B144     1.0000 0.35530  0.00000  0.70580  Biso   1.000  B 
  B145     1.0000 0.33050  0.00000  0.77510  Biso   1.000  B 
  B146     1.0000 0.29420  0.00000  0.64470  Biso   1.000  B 
  B147     1.0000 0.22490  0.00000  0.66950  Biso   1.000  B 
  B148     1.0000 0.34350  0.00000  0.65650  Biso   1.000  B 
  B149     1.0000 0.38280  0.00000  0.61720  Biso   1.000  B 
  O8       1.0000 0.40770  0.99704  0.71900  Biso   1.000  O 
  B150     1.0000 0.28510  0.00000  0.61140  Biso   1.000  B 
  B151     1.0000 0.42810  0.00000  0.63260  Biso   1.000  B 
  B152     1.0000 0.36740  0.00000  0.57190  Biso   1.000  B 
  C19      1.0000 0.41980  0.94662  0.73114  Biso   1.000  C 
  C20      1.0000 0.07003  0.96071  0.76686  Biso   1.000  C 
  C21      1.0000 0.44745  0.94658  0.78407  Biso   1.000  C 
  H43      1.0000 0.43874  0.93312  0.69623  Biso   1.000  H 
  H44      1.0000 0.38500  0.92377  0.73463  Biso   1.000  H 
  H45      1.0000 0.45847  0.90717  0.79295  Biso   1.000  H 
  C22      1.0000 0.41516  0.96233  0.82715  Biso   1.000  C 
  H46      1.0000 0.48154  0.96826  0.78441  Biso   1.000  H 
  H47      1.0000 0.40641  0.00308  0.82703  Biso   1.000  H 
  H48      1.0000 0.43312  0.95488  0.86186  Biso   1.000  H 
  C23      1.0000 0.07570  0.94415  0.71222  Biso   1.000  C 
  H49      1.0000 0.02957  0.96611  0.77323  Biso   1.000  H 
  H50      1.0000 0.08312  0.93022  0.79192  Biso   1.000  H 
  C24      1.0000 0.06863  0.98661  0.67550  Biso   1.000  C 
  H51      1.0000 0.04838  0.91419  0.70368  Biso   1.000  H 
  H52      1.0000 0.11336  0.92855  0.70747  Biso   1.000  H 
  H53      1.0000 0.04876  0.01862  0.69254  Biso   1.000  H 
  H54      1.0000 0.10488  0.99955  0.66110  Biso   1.000  H 
  H55      1.0000 0.37969  0.93886  0.82472  Biso   1.000  H 
  H56      1.0000 0.04635  0.97277  0.64381  Biso   1.000  H 
  B153     1.0000 0.07190  0.13260  0.00000  Biso   1.000  B 
  B154     1.0000 0.11720  0.11720  0.00000  Biso   1.000  B 
  B155     1.0000 0.13260  0.07190  0.00000  Biso   1.000  B 
  B156     1.0000 0.15650  0.15650  0.00000  Biso   1.000  B 
  B157     1.0000 0.14470  0.20580  0.00000  Biso   1.000  B 
  B158     1.0000 0.20580  0.14470  0.00000  Biso   1.000  B 
  B159     1.0000 0.17950  0.24200  0.00000  Biso   1.000  B 
  B160     1.0000 0.11140  0.21490  0.00000  Biso   1.000  B 
  B161     1.0000 0.24200  0.17950  0.00000  Biso   1.000  B 
  O9       1.0000 0.22176  0.09279  0.99256  Biso   1.000  O 
  B162     1.0000 0.23070  0.23070  0.00000  Biso   1.000  B 
  B163     1.0000 0.26930  0.26930  0.00000  Biso   1.000  B 
  B164     1.0000 0.16950  0.27510  0.00000  Biso   1.000  B 
  B165     1.0000 0.25800  0.32050  0.00000  Biso   1.000  B 
  B166     1.0000 0.27510  0.16950  0.00000  Biso   1.000  B 
  B167     1.0000 0.32050  0.25800  0.00000  Biso   1.000  B 
  B168     1.0000 0.29420  0.35530  0.00000  Biso   1.000  B 
  B169     1.0000 0.22490  0.33050  0.00000  Biso   1.000  B 
  B170     1.0000 0.35530  0.29420  0.00000  Biso   1.000  B 
  B171     1.0000 0.33050  0.22490  0.00000  Biso   1.000  B 
  B172     1.0000 0.34350  0.34350  0.00000  Biso   1.000  B 
  B173     1.0000 0.38280  0.38280  0.00000  Biso   1.000  B 
  O10      1.0000 0.28004  0.40831  0.99179  Biso   1.000  O 
  B174     1.0000 0.38860  0.28510  0.00000  Biso   1.000  B 
  B175     1.0000 0.36740  0.42810  0.00000  Biso   1.000  B 
  B176     1.0000 0.42810  0.36740  0.00000  Biso   1.000  B 
  C25      1.0000 0.23698  0.42607  0.01852  Biso   1.000  C 
  C26      1.0000 0.23262  0.07021  0.03920  Biso   1.000  C 
  C27      1.0000 0.19745  0.43597  0.97629  Biso   1.000  C 
  H57      1.0000 0.24893  0.46279  0.03675  Biso   1.000  H 
  H58      1.0000 0.22105  0.39890  0.04577  Biso   1.000  H 
  H59      1.0000 0.20020  0.47135  0.95887  Biso   1.000  H 
  C28      1.0000 0.14807  0.44026  0.99968  Biso   1.000  C 
  H60      1.0000 0.20020  0.40722  0.94760  Biso   1.000  H 
  H61      1.0000 0.11935  0.44956  0.97236  Biso   1.000  H 
  H62      1.0000 0.14996  0.46942  0.03014  Biso   1.000  H 
  C29      1.0000 0.28768  0.07431  0.05417  Biso   1.000  C 
  H63      1.0000 0.22455  0.02999  0.03450  Biso   1.000  H 
  H64      1.0000 0.20887  0.08470  0.07014  Biso   1.000  H 
  C30      1.0000 0.32323  0.06526  0.01079  Biso   1.000  C 
  H65      1.0000 0.29604  0.04737  0.08451  Biso   1.000  H 
  H66      1.0000 0.29390  0.11212  0.06888  Biso   1.000  H 
  H67      1.0000 0.30449  0.04963  0.97740  Biso   1.000  H 
  H68      1.0000 0.34152  0.10050  0.00039  Biso   1.000  H 
  H69      1.0000 0.13801  0.40526  0.01866  Biso   1.000  H 
  H70      1.0000 0.35240  0.03898  0.02316  Biso   1.000  H 
  B177     1.0000 0.07190  0.86740  0.00000  Biso   1.000  B 
  B178     1.0000 0.11720  0.88280  0.00000  Biso   1.000  B 
  B179     1.0000 0.13260  0.92810  0.00000  Biso   1.000  B 
  B180     1.0000 0.15650  0.84350  0.00000  Biso   1.000  B 
  B181     1.0000 0.14470  0.79420  0.00000  Biso   1.000  B 
  B182     1.0000 0.20580  0.85530  0.00000  Biso   1.000  B 
  B183     1.0000 0.17950  0.75800  0.00000  Biso   1.000  B 
  B184     1.0000 0.11140  0.78510  0.00000  Biso   1.000  B 
  B185     1.0000 0.24200  0.82050  0.00000  Biso   1.000  B 
  O11      1.0000 0.22176  0.90721  0.00744  Biso   1.000  O 
  B186     1.0000 0.23070  0.76930  0.00000  Biso   1.000  B 
  B187     1.0000 0.26930  0.73070  0.00000  Biso   1.000  B 
  B188     1.0000 0.16950  0.72490  0.00000  Biso   1.000  B 
  B189     1.0000 0.25800  0.67950  0.00000  Biso   1.000  B 
  B190     1.0000 0.27510  0.83050  0.00000  Biso   1.000  B 
  B191     1.0000 0.32050  0.74200  0.00000  Biso   1.000  B 
  B192     1.0000 0.29420  0.64470  0.00000  Biso   1.000  B 
  B193     1.0000 0.22490  0.66950  0.00000  Biso   1.000  B 
  B194     1.0000 0.35530  0.70580  0.00000  Biso   1.000  B 
  B195     1.0000 0.33050  0.77510  0.00000  Biso   1.000  B 
  B196     1.0000 0.34350  0.65650  0.00000  Biso   1.000  B 
  B197     1.0000 0.38280  0.61720  0.00000  Biso   1.000  B 
  O12      1.0000 0.28004  0.59169  0.00821  Biso   1.000  O 
  B198     1.0000 0.38860  0.71490  0.00000  Biso   1.000  B 
  B199     1.0000 0.36740  0.57190  0.00000  Biso   1.000  B 
  B200     1.0000 0.42810  0.63260  0.00000  Biso   1.000  B 
  C31      1.0000 0.23698  0.57393  0.98148  Biso   1.000  C 
  C32      1.0000 0.23262  0.92979  0.96080  Biso   1.000  C 
  C33      1.0000 0.19745  0.56403  0.02371  Biso   1.000  C 
  H71      1.0000 0.24893  0.53721  0.96325  Biso   1.000  H 
  H72      1.0000 0.22105  0.60110  0.95423  Biso   1.000  H 
  H73      1.0000 0.20020  0.52865  0.04113  Biso   1.000  H 
  C34      1.0000 0.14807  0.55974  0.00032  Biso   1.000  C 
  H74      1.0000 0.20020  0.59278  0.05240  Biso   1.000  H 
  H75      1.0000 0.11935  0.55044  0.02764  Biso   1.000  H 
  H76      1.0000 0.14996  0.53058  0.96987  Biso   1.000  H 
  C35      1.0000 0.28768  0.92569  0.94582  Biso   1.000  C 
  H77      1.0000 0.22455  0.97001  0.96550  Biso   1.000  H 
  H78      1.0000 0.20887  0.91530  0.92986  Biso   1.000  H 
  C36      1.0000 0.32323  0.93474  0.98921  Biso   1.000  C 
  H79      1.0000 0.29604  0.95263  0.91549  Biso   1.000  H 
  H80      1.0000 0.29390  0.88788  0.93112  Biso   1.000  H 
  H81      1.0000 0.30449  0.95037  0.02260  Biso   1.000  H 
  H82      1.0000 0.34152  0.89950  0.99961  Biso   1.000  H 
  H83      1.0000 0.13801  0.59474  0.98134  Biso   1.000  H 
  H84      1.0000 0.35240  0.96102  0.97684  Biso   1.000  H 
  B201     1.0000 0.92810  0.86740  0.00000  Biso   1.000  B 
  B202     1.0000 0.88280  0.88280  0.00000  Biso   1.000  B 
  B203     1.0000 0.86740  0.92810  0.00000  Biso   1.000  B 
  B204     1.0000 0.84350  0.84350  0.00000  Biso   1.000  B 
  B205     1.0000 0.85530  0.79420  0.00000  Biso   1.000  B 
  B206     1.0000 0.79420  0.85530  0.00000  Biso   1.000  B 
  B207     1.0000 0.82050  0.75800  0.00000  Biso   1.000  B 
  B208     1.0000 0.88860  0.78510  0.00000  Biso   1.000  B 
  B209     1.0000 0.75800  0.82050  0.00000  Biso   1.000  B 
  O13      1.0000 0.77824  0.90721  0.99256  Biso   1.000  O 
  B210     1.0000 0.76930  0.76930  0.00000  Biso   1.000  B 
  B211     1.0000 0.73070  0.73070  0.00000  Biso   1.000  B 
  B212     1.0000 0.83050  0.72490  0.00000  Biso   1.000  B 
  B213     1.0000 0.74200  0.67950  0.00000  Biso   1.000  B 
  B214     1.0000 0.72490  0.83050  0.00000  Biso   1.000  B 
  B215     1.0000 0.67950  0.74200  0.00000  Biso   1.000  B 
  B216     1.0000 0.70580  0.64470  0.00000  Biso   1.000  B 
  B217     1.0000 0.77510  0.66950  0.00000  Biso   1.000  B 
  B218     1.0000 0.64470  0.70580  0.00000  Biso   1.000  B 
  B219     1.0000 0.66950  0.77510  0.00000  Biso   1.000  B 
  B220     1.0000 0.65650  0.65650  0.00000  Biso   1.000  B 
  B221     1.0000 0.61720  0.61720  0.00000  Biso   1.000  B 
  O14      1.0000 0.71996  0.59169  0.99179  Biso   1.000  O 
  B222     1.0000 0.61140  0.71490  0.00000  Biso   1.000  B 
  B223     1.0000 0.63260  0.57190  0.00000  Biso   1.000  B 
  B224     1.0000 0.57190  0.63260  0.00000  Biso   1.000  B 
  C37      1.0000 0.76302  0.57393  0.01852  Biso   1.000  C 
  C38      1.0000 0.76738  0.92979  0.03920  Biso   1.000  C 
  C39      1.0000 0.80255  0.56403  0.97629  Biso   1.000  C 
  H85      1.0000 0.75107  0.53721  0.03675  Biso   1.000  H 
  H86      1.0000 0.77895  0.60110  0.04577  Biso   1.000  H 
  H87      1.0000 0.79980  0.52865  0.95887  Biso   1.000  H 
  C40      1.0000 0.85193  0.55974  0.99968  Biso   1.000  C 
  H88      1.0000 0.79980  0.59278  0.94760  Biso   1.000  H 
  H89      1.0000 0.88065  0.55044  0.97236  Biso   1.000  H 
  H90      1.0000 0.85004  0.53058  0.03014  Biso   1.000  H 
  C41      1.0000 0.71232  0.92569  0.05417  Biso   1.000  C 
  H91      1.0000 0.77545  0.97001  0.03450  Biso   1.000  H 
  H92      1.0000 0.79113  0.91530  0.07014  Biso   1.000  H 
  C42      1.0000 0.67677  0.93474  0.01079  Biso   1.000  C 
  H93      1.0000 0.70396  0.95263  0.08451  Biso   1.000  H 
  H94      1.0000 0.70610  0.88788  0.06888  Biso   1.000  H 
  H95      1.0000 0.69551  0.95037  0.97740  Biso   1.000  H 
  H96      1.0000 0.65848  0.89950  0.00039  Biso   1.000  H 
  H97      1.0000 0.86199  0.59474  0.01866  Biso   1.000  H 
  H98      1.0000 0.64760  0.96102  0.02316  Biso   1.000  H 
  B225     1.0000 0.92810  0.13260  0.00000  Biso   1.000  B 
  B226     1.0000 0.88280  0.11720  0.00000  Biso   1.000  B 
  B227     1.0000 0.86740  0.07190  0.00000  Biso   1.000  B 
  B228     1.0000 0.84350  0.15650  0.00000  Biso   1.000  B 
  B229     1.0000 0.85530  0.20580  0.00000  Biso   1.000  B 
  B230     1.0000 0.79420  0.14470  0.00000  Biso   1.000  B 
  B231     1.0000 0.82050  0.24200  0.00000  Biso   1.000  B 
  B232     1.0000 0.88860  0.21490  0.00000  Biso   1.000  B 
  B233     1.0000 0.75800  0.17950  0.00000  Biso   1.000  B 
  O15      1.0000 0.77824  0.09279  0.00744  Biso   1.000  O 
  B234     1.0000 0.76930  0.23070  0.00000  Biso   1.000  B 
  B235     1.0000 0.73070  0.26930  0.00000  Biso   1.000  B 
  B236     1.0000 0.83050  0.27510  0.00000  Biso   1.000  B 
  B237     1.0000 0.74200  0.32050  0.00000  Biso   1.000  B 
  B238     1.0000 0.72490  0.16950  0.00000  Biso   1.000  B 
  B239     1.0000 0.67950  0.25800  0.00000  Biso   1.000  B 
  B240     1.0000 0.70580  0.35530  0.00000  Biso   1.000  B 
  B241     1.0000 0.77510  0.33050  0.00000  Biso   1.000  B 
  B242     1.0000 0.64470  0.29420  0.00000  Biso   1.000  B 
  B243     1.0000 0.66950  0.22490  0.00000  Biso   1.000  B 
  B244     1.0000 0.65650  0.34350  0.00000  Biso   1.000  B 
  B245     1.0000 0.61720  0.38280  0.00000  Biso   1.000  B 
  O16      1.0000 0.71996  0.40831  0.00821  Biso   1.000  O 
  B246     1.0000 0.61140  0.28510  0.00000  Biso   1.000  B 
  B247     1.0000 0.63260  0.42810  0.00000  Biso   1.000  B 
  B248     1.0000 0.57190  0.36740  0.00000  Biso   1.000  B 
  C43      1.0000 0.76302  0.42607  0.98148  Biso   1.000  C 
  C44      1.0000 0.76738  0.07021  0.96080  Biso   1.000  C 
  C45      1.0000 0.80255  0.43597  0.02371  Biso   1.000  C 
  H99      1.0000 0.75107  0.46279  0.96325  Biso   1.000  H 
  H100     1.0000 0.77895  0.39890  0.95423  Biso   1.000  H 
  H101     1.0000 0.79980  0.47135  0.04113  Biso   1.000  H 
  C46      1.0000 0.85193  0.44026  0.00032  Biso   1.000  C 
  H102     1.0000 0.79980  0.40722  0.05240  Biso   1.000  H 
  H103     1.0000 0.88065  0.44956  0.02764  Biso   1.000  H 
  H104     1.0000 0.85004  0.46942  0.96987  Biso   1.000  H 
  C47      1.0000 0.71232  0.07431  0.94582  Biso   1.000  C 
  H105     1.0000 0.77545  0.02999  0.96550  Biso   1.000  H 
  H106     1.0000 0.79113  0.08470  0.92986  Biso   1.000  H 
  C48      1.0000 0.67677  0.06526  0.98921  Biso   1.000  C 
  H107     1.0000 0.70396  0.04737  0.91549  Biso   1.000  H 
  H108     1.0000 0.70610  0.11212  0.93112  Biso   1.000  H 
  H109     1.0000 0.69551  0.04963  0.02260  Biso   1.000  H 
  H110     1.0000 0.65848  0.10050  0.99961  Biso   1.000  H 
  H111     1.0000 0.86199  0.40526  0.98134  Biso   1.000  H 
  H112     1.0000 0.64760  0.03898  0.97684  Biso   1.000  H 
  B249     1.0000 0.00000  0.07190  0.13260  Biso   1.000  B 
  B250     1.0000 0.00000  0.11720  0.11720  Biso   1.000  B 
  B251     1.0000 0.00000  0.13260  0.07190  Biso   1.000  B 
  B252     1.0000 0.00000  0.15650  0.15650  Biso   1.000  B 
  B253     1.0000 0.00000  0.14470  0.20580  Biso   1.000  B 
  B254     1.0000 0.00000  0.20580  0.14470  Biso   1.000  B 
  B255     1.0000 0.00000  0.17950  0.24200  Biso   1.000  B 
  B256     1.0000 0.00000  0.11140  0.21490  Biso   1.000  B 
  B257     1.0000 0.00000  0.24200  0.17950  Biso   1.000  B 
  O17      1.0000 0.99482  0.22290  0.09267  Biso   1.000  O 
  B258     1.0000 0.00000  0.23070  0.23070  Biso   1.000  B 
  B259     1.0000 0.00000  0.26930  0.26930  Biso   1.000  B 
  B260     1.0000 0.00000  0.16950  0.27510  Biso   1.000  B 
  B261     1.0000 0.00000  0.25800  0.32050  Biso   1.000  B 
  B262     1.0000 0.00000  0.27510  0.16950  Biso   1.000  B 
  B263     1.0000 0.00000  0.32050  0.25800  Biso   1.000  B 
  B264     1.0000 0.00000  0.29420  0.35530  Biso   1.000  B 
  B265     1.0000 0.00000  0.22490  0.33050  Biso   1.000  B 
  B266     1.0000 0.00000  0.35530  0.29420  Biso   1.000  B 
  B267     1.0000 0.00000  0.33050  0.22490  Biso   1.000  B 
  B268     1.0000 0.00000  0.34350  0.34350  Biso   1.000  B 
  B269     1.0000 0.00000  0.38280  0.38280  Biso   1.000  B 
  O18      1.0000 0.99465  0.27927  0.40868  Biso   1.000  O 
  B270     1.0000 0.00000  0.38860  0.28510  Biso   1.000  B 
  B271     1.0000 0.00000  0.36740  0.42810  Biso   1.000  B 
  B272     1.0000 0.00000  0.42810  0.36740  Biso   1.000  B 
  C49      1.0000 0.04116  0.26900  0.42943  Biso   1.000  C 
  C50      1.0000 0.03997  0.24251  0.07328  Biso   1.000  C 
  C51      1.0000 0.06557  0.21946  0.41085  Biso   1.000  C 
  H113     1.0000 0.03680  0.26700  0.46974  Biso   1.000  H 
  H114     1.0000 0.06765  0.29947  0.42178  Biso   1.000  H 
  H115     1.0000 0.08595  0.20071  0.44152  Biso   1.000  H 
  C52      1.0000 0.10394  0.22918  0.37166  Biso   1.000  C 
  H116     1.0000 0.03643  0.19368  0.39662  Biso   1.000  H 
  H117     1.0000 0.09576  0.26465  0.35314  Biso   1.000  H 
  H118     1.0000 0.10521  0.19807  0.34146  Biso   1.000  H 
  C53      1.0000 0.05218  0.29691  0.08962  Biso   1.000  C 
  H119     1.0000 0.03560  0.24259  0.03210  Biso   1.000  H 
  H120     1.0000 0.07170  0.21766  0.08278  Biso   1.000  H 
  C54      1.0000 0.00984  0.33431  0.08237  Biso   1.000  C 
  H121     1.0000 0.08364  0.30973  0.06615  Biso   1.000  H 
  H122     1.0000 0.06541  0.29795  0.12848  Biso   1.000  H 
  H123     1.0000 0.99614  0.33410  0.04358  Biso   1.000  H 
  H124     1.0000 0.97860  0.32602  0.10782  Biso   1.000  H 
  H125     1.0000 0.13983  0.23207  0.38904  Biso   1.000  H 
  H126     1.0000 0.02451  0.37176  0.09108  Biso   1.000  H 
  B273     1.0000 0.00000  0.07190  0.86740  Biso   1.000  B 
  B274     1.0000 0.00000  0.11720  0.88280  Biso   1.000  B 
  B275     1.0000 0.00000  0.13260  0.92810  Biso   1.000  B 
  B276     1.0000 0.00000  0.15650  0.84350  Biso   1.000  B 
  B277     1.0000 0.00000  0.14470  0.79420  Biso   1.000  B 
  B278     1.0000 0.00000  0.20580  0.85530  Biso   1.000  B 
  B279     1.0000 0.00000  0.17950  0.75800  Biso   1.000  B 
  B280     1.0000 0.00000  0.11140  0.78510  Biso   1.000  B 
  B281     1.0000 0.00000  0.24200  0.82050  Biso   1.000  B 
  O19      1.0000 0.00518  0.22290  0.90734  Biso   1.000  O 
  B282     1.0000 0.00000  0.23070  0.76930  Biso   1.000  B 
  B283     1.0000 0.00000  0.26930  0.73070  Biso   1.000  B 
  B284     1.0000 0.00000  0.16950  0.72490  Biso   1.000  B 
  B285     1.0000 0.00000  0.25800  0.67950  Biso   1.000  B 
  B286     1.0000 0.00000  0.27510  0.83050  Biso   1.000  B 
  B287     1.0000 0.00000  0.32050  0.74200  Biso   1.000  B 
  B288     1.0000 0.00000  0.29420  0.64470  Biso   1.000  B 
  B289     1.0000 0.00000  0.22490  0.66950  Biso   1.000  B 
  B290     1.0000 0.00000  0.35530  0.70580  Biso   1.000  B 
  B291     1.0000 0.00000  0.33050  0.77510  Biso   1.000  B 
  B292     1.0000 0.00000  0.34350  0.65650  Biso   1.000  B 
  B293     1.0000 0.00000  0.38280  0.61720  Biso   1.000  B 
  O20      1.0000 0.00535  0.27927  0.59132  Biso   1.000  O 
  B294     1.0000 0.00000  0.38860  0.71490  Biso   1.000  B 
  B295     1.0000 0.00000  0.36740  0.57190  Biso   1.000  B 
  B296     1.0000 0.00000  0.42810  0.63260  Biso   1.000  B 
  C55      1.0000 0.95884  0.26900  0.57057  Biso   1.000  C 
  C56      1.0000 0.96003  0.24251  0.92672  Biso   1.000  C 
  C57      1.0000 0.93443  0.21946  0.58915  Biso   1.000  C 
  H127     1.0000 0.96320  0.26700  0.53026  Biso   1.000  H 
  H128     1.0000 0.93235  0.29947  0.57822  Biso   1.000  H 
  H129     1.0000 0.91405  0.20071  0.55848  Biso   1.000  H 
  C58      1.0000 0.89606  0.22918  0.62834  Biso   1.000  C 
  H130     1.0000 0.96357  0.19368  0.60338  Biso   1.000  H 
  H131     1.0000 0.90424  0.26465  0.64686  Biso   1.000  H 
  H132     1.0000 0.89479  0.19807  0.65854  Biso   1.000  H 
  C59      1.0000 0.94782  0.29691  0.91038  Biso   1.000  C 
  H133     1.0000 0.96440  0.24259  0.96790  Biso   1.000  H 
  H134     1.0000 0.92830  0.21766  0.91722  Biso   1.000  H 
  C60      1.0000 0.99016  0.33431  0.91763  Biso   1.000  C 
  H135     1.0000 0.91636  0.30973  0.93385  Biso   1.000  H 
  H136     1.0000 0.93459  0.29795  0.87152  Biso   1.000  H 
  H137     1.0000 0.00386  0.33410  0.95642  Biso   1.000  H 
  H138     1.0000 0.02140  0.32602  0.89218  Biso   1.000  H 
  H139     1.0000 0.86017  0.23207  0.61096  Biso   1.000  H 
  H140     1.0000 0.97549  0.37176  0.90892  Biso   1.000  H 
  B297     1.0000 0.00000  0.92810  0.86740  Biso   1.000  B 
  B298     1.0000 0.00000  0.88280  0.88280  Biso   1.000  B 
  B299     1.0000 0.00000  0.86740  0.92810  Biso   1.000  B 
  B300     1.0000 0.00000  0.84350  0.84350  Biso   1.000  B 
  B301     1.0000 0.00000  0.85530  0.79420  Biso   1.000  B 
  B302     1.0000 0.00000  0.79420  0.85530  Biso   1.000  B 
  B303     1.0000 0.00000  0.82050  0.75800  Biso   1.000  B 
  B304     1.0000 0.00000  0.88860  0.78510  Biso   1.000  B 
  B305     1.0000 0.00000  0.75800  0.82050  Biso   1.000  B 
  O21      1.0000 0.99482  0.77710  0.90734  Biso   1.000  O 
  B306     1.0000 0.00000  0.76930  0.76930  Biso   1.000  B 
  B307     1.0000 0.00000  0.73070  0.73070  Biso   1.000  B 
  B308     1.0000 0.00000  0.83050  0.72490  Biso   1.000  B 
  B309     1.0000 0.00000  0.74200  0.67950  Biso   1.000  B 
  B310     1.0000 0.00000  0.72490  0.83050  Biso   1.000  B 
  B311     1.0000 0.00000  0.67950  0.74200  Biso   1.000  B 
  B312     1.0000 0.00000  0.70580  0.64470  Biso   1.000  B 
  B313     1.0000 0.00000  0.77510  0.66950  Biso   1.000  B 
  B314     1.0000 0.00000  0.64470  0.70580  Biso   1.000  B 
  B315     1.0000 0.00000  0.66950  0.77510  Biso   1.000  B 
  B316     1.0000 0.00000  0.65650  0.65650  Biso   1.000  B 
  B317     1.0000 0.00000  0.61720  0.61720  Biso   1.000  B 
  O22      1.0000 0.99465  0.72072  0.59132  Biso   1.000  O 
  B318     1.0000 0.00000  0.61140  0.71490  Biso   1.000  B 
  B319     1.0000 0.00000  0.63260  0.57190  Biso   1.000  B 
  B320     1.0000 0.00000  0.57190  0.63260  Biso   1.000  B 
  C61      1.0000 0.04116  0.73100  0.57057  Biso   1.000  C 
  C62      1.0000 0.03997  0.75749  0.92672  Biso   1.000  C 
  C63      1.0000 0.06557  0.78054  0.58915  Biso   1.000  C 
  H141     1.0000 0.03680  0.73300  0.53026  Biso   1.000  H 
  H142     1.0000 0.06765  0.70053  0.57822  Biso   1.000  H 
  H143     1.0000 0.08595  0.79929  0.55848  Biso   1.000  H 
  C64      1.0000 0.10394  0.77082  0.62834  Biso   1.000  C 
  H144     1.0000 0.03643  0.80632  0.60338  Biso   1.000  H 
  H145     1.0000 0.09576  0.73535  0.64686  Biso   1.000  H 
  H146     1.0000 0.10521  0.80193  0.65854  Biso   1.000  H 
  C65      1.0000 0.05218  0.70309  0.91038  Biso   1.000  C 
  H147     1.0000 0.03560  0.75741  0.96790  Biso   1.000  H 
  H148     1.0000 0.07170  0.78234  0.91722  Biso   1.000  H 
  C66      1.0000 0.00984  0.66569  0.91763  Biso   1.000  C 
  H149     1.0000 0.08364  0.69027  0.93385  Biso   1.000  H 
  H150     1.0000 0.06541  0.70204  0.87152  Biso   1.000  H 
  H151     1.0000 0.99614  0.66590  0.95642  Biso   1.000  H 
  H152     1.0000 0.97860  0.67398  0.89218  Biso   1.000  H 
  H153     1.0000 0.13983  0.76793  0.61096  Biso   1.000  H 
  H154     1.0000 0.02451  0.62823  0.90892  Biso   1.000  H 
  B321     1.0000 0.00000  0.92810  0.13260  Biso   1.000  B 
  B322     1.0000 0.00000  0.88280  0.11720  Biso   1.000  B 
  B323     1.0000 0.00000  0.86740  0.07190  Biso   1.000  B 
  B324     1.0000 0.00000  0.84350  0.15650  Biso   1.000  B 
  B325     1.0000 0.00000  0.85530  0.20580  Biso   1.000  B 
  B326     1.0000 0.00000  0.79420  0.14470  Biso   1.000  B 
  B327     1.0000 0.00000  0.82050  0.24200  Biso   1.000  B 
  B328     1.0000 0.00000  0.88860  0.21490  Biso   1.000  B 
  B329     1.0000 0.00000  0.75800  0.17950  Biso   1.000  B 
  O23      1.0000 0.00518  0.77710  0.09267  Biso   1.000  O 
  B330     1.0000 0.00000  0.76930  0.23070  Biso   1.000  B 
  B331     1.0000 0.00000  0.73070  0.26930  Biso   1.000  B 
  B332     1.0000 0.00000  0.83050  0.27510  Biso   1.000  B 
  B333     1.0000 0.00000  0.74200  0.32050  Biso   1.000  B 
  B334     1.0000 0.00000  0.72490  0.16950  Biso   1.000  B 
  B335     1.0000 0.00000  0.67950  0.25800  Biso   1.000  B 
  B336     1.0000 0.00000  0.70580  0.35530  Biso   1.000  B 
  B337     1.0000 0.00000  0.77510  0.33050  Biso   1.000  B 
  B338     1.0000 0.00000  0.64470  0.29420  Biso   1.000  B 
  B339     1.0000 0.00000  0.66950  0.22490  Biso   1.000  B 
  B340     1.0000 0.00000  0.65650  0.34350  Biso   1.000  B 
  B341     1.0000 0.00000  0.61720  0.38280  Biso   1.000  B 
  O24      1.0000 0.00535  0.72072  0.40868  Biso   1.000  O 
  B342     1.0000 0.00000  0.61140  0.28510  Biso   1.000  B 
  B343     1.0000 0.00000  0.63260  0.42810  Biso   1.000  B 
  B344     1.0000 0.00000  0.57190  0.36740  Biso   1.000  B 
  C67      1.0000 0.95884  0.73100  0.42943  Biso   1.000  C 
  C68      1.0000 0.96003  0.75749  0.07328  Biso   1.000  C 
  C69      1.0000 0.93443  0.78054  0.41085  Biso   1.000  C 
  H155     1.0000 0.96320  0.73300  0.46974  Biso   1.000  H 
  H156     1.0000 0.93235  0.70053  0.42178  Biso   1.000  H 
  H157     1.0000 0.91405  0.79929  0.44152  Biso   1.000  H 
  C70      1.0000 0.89606  0.77082  0.37166  Biso   1.000  C 
  H158     1.0000 0.96357  0.80632  0.39662  Biso   1.000  H 
  H159     1.0000 0.90424  0.73535  0.35314  Biso   1.000  H 
  H160     1.0000 0.89479  0.80193  0.34146  Biso   1.000  H 
  C71      1.0000 0.94782  0.70309  0.08962  Biso   1.000  C 
  H161     1.0000 0.96440  0.75741  0.03210  Biso   1.000  H 
  H162     1.0000 0.92830  0.78234  0.08278  Biso   1.000  H 
  C72      1.0000 0.99016  0.66569  0.08237  Biso   1.000  C 
  H163     1.0000 0.91636  0.69027  0.06615  Biso   1.000  H 
  H164     1.0000 0.93459  0.70204  0.12848  Biso   1.000  H 
  H165     1.0000 0.00386  0.66590  0.04358  Biso   1.000  H 
  H166     1.0000 0.02140  0.67398  0.10782  Biso   1.000  H 
  H167     1.0000 0.86017  0.76793  0.38904  Biso   1.000  H 
  H168     1.0000 0.97549  0.62823  0.09108  Biso   1.000  H 
  B345     1.0000 0.13260  0.50000  0.57190  Biso   1.000  B 
  B346     1.0000 0.11720  0.50000  0.61720  Biso   1.000  B 
  B347     1.0000 0.07190  0.50000  0.63260  Biso   1.000  B 
  B348     1.0000 0.15650  0.50000  0.65650  Biso   1.000  B 
  B349     1.0000 0.20580  0.50000  0.64470  Biso   1.000  B 
  B350     1.0000 0.14470  0.50000  0.70580  Biso   1.000  B 
  B351     1.0000 0.24200  0.50000  0.67950  Biso   1.000  B 
  B352     1.0000 0.21490  0.50000  0.61140  Biso   1.000  B 
  B353     1.0000 0.17950  0.50000  0.74200  Biso   1.000  B 
  O25      1.0000 0.09308  0.49454  0.72144  Biso   1.000  O 
  B354     1.0000 0.23070  0.50000  0.73070  Biso   1.000  B 
  B355     1.0000 0.26930  0.50000  0.76930  Biso   1.000  B 
  B356     1.0000 0.27510  0.50000  0.66950  Biso   1.000  B 
  B357     1.0000 0.32050  0.50000  0.75800  Biso   1.000  B 
  B358     1.0000 0.16950  0.50000  0.77510  Biso   1.000  B 
  B359     1.0000 0.25800  0.50000  0.82050  Biso   1.000  B 
  B360     1.0000 0.35530  0.50000  0.79420  Biso   1.000  B 
  B361     1.0000 0.33050  0.50000  0.72490  Biso   1.000  B 
  B362     1.0000 0.29420  0.50000  0.85530  Biso   1.000  B 
  B363     1.0000 0.22490  0.50000  0.83050  Biso   1.000  B 
  B364     1.0000 0.34350  0.50000  0.84350  Biso   1.000  B 
  B365     1.0000 0.38280  0.50000  0.88280  Biso   1.000  B 
  O26      1.0000 0.40575  0.48916  0.77745  Biso   1.000  O 
  B366     1.0000 0.28510  0.50000  0.88860  Biso   1.000  B 
  B367     1.0000 0.42810  0.50000  0.86740  Biso   1.000  B 
  B368     1.0000 0.36740  0.50000  0.92810  Biso   1.000  B 
  C73      1.0000 0.42618  0.53149  0.75041  Biso   1.000  C 
  C74      1.0000 0.07425  0.54229  0.73298  Biso   1.000  C 
  C75      1.0000 0.44182  0.51459  0.69763  Biso   1.000  C 
  H169     1.0000 0.45859  0.54636  0.77043  Biso   1.000  H 
  H170     1.0000 0.40042  0.56319  0.74455  Biso   1.000  H 
  H171     1.0000 0.47718  0.53515  0.69036  Biso   1.000  H 
  C76      1.0000 0.40996  0.53140  0.65504  Biso   1.000  C 
  H172     1.0000 0.44477  0.47371  0.69757  Biso   1.000  H 
  H173     1.0000 0.40831  0.57346  0.65743  Biso   1.000  H 
  H174     1.0000 0.37161  0.51505  0.65484  Biso   1.000  H 
  C77      1.0000 0.08742  0.55840  0.78664  Biso   1.000  C 
  H175     1.0000 0.03315  0.53913  0.73108  Biso   1.000  H 
  H176     1.0000 0.08623  0.57119  0.70547  Biso   1.000  H 
  C78      1.0000 0.07572  0.51884  0.82594  Biso   1.000  C 
  H177     1.0000 0.06483  0.59173  0.79629  Biso   1.000  H 
  H178     1.0000 0.12700  0.56904  0.78864  Biso   1.000  H 
  H179     1.0000 0.03523  0.51843  0.83290  Biso   1.000  H 
  H180     1.0000 0.08810  0.48147  0.81395  Biso   1.000  H 
  H181     1.0000 0.42858  0.51987  0.62036  Biso   1.000  H 
  H182     1.0000 0.09490  0.52856  0.86106  Biso   1.000  H 
  B369     1.0000 0.86740  0.50000  0.57190  Biso   1.000  B 
  B370     1.0000 0.88280  0.50000  0.61720  Biso   1.000  B 
  B371     1.0000 0.92810  0.50000  0.63260  Biso   1.000  B 
  B372     1.0000 0.84350  0.50000  0.65650  Biso   1.000  B 
  B373     1.0000 0.79420  0.50000  0.64470  Biso   1.000  B 
  B374     1.0000 0.85530  0.50000  0.70580  Biso   1.000  B 
  B375     1.0000 0.75800  0.50000  0.67950  Biso   1.000  B 
  B376     1.0000 0.78510  0.50000  0.61140  Biso   1.000  B 
  B377     1.0000 0.82050  0.50000  0.74200  Biso   1.000  B 
  O27      1.0000 0.90692  0.50546  0.72144  Biso   1.000  O 
  B378     1.0000 0.76930  0.50000  0.73070  Biso   1.000  B 
  B379     1.0000 0.73070  0.50000  0.76930  Biso   1.000  B 
  B380     1.0000 0.72490  0.50000  0.66950  Biso   1.000  B 
  B381     1.0000 0.67950  0.50000  0.75800  Biso   1.000  B 
  B382     1.0000 0.83050  0.50000  0.77510  Biso   1.000  B 
  B383     1.0000 0.74200  0.50000  0.82050  Biso   1.000  B 
  B384     1.0000 0.64470  0.50000  0.79420  Biso   1.000  B 
  B385     1.0000 0.66950  0.50000  0.72490  Biso   1.000  B 
  B386     1.0000 0.70580  0.50000  0.85530  Biso   1.000  B 
  B387     1.0000 0.77510  0.50000  0.83050  Biso   1.000  B 
  B388     1.0000 0.65650  0.50000  0.84350  Biso   1.000  B 
  B389     1.0000 0.61720  0.50000  0.88280  Biso   1.000  B 
  O28      1.0000 0.59425  0.51084  0.77745  Biso   1.000  O 
  B390     1.0000 0.71490  0.50000  0.88860  Biso   1.000  B 
  B391     1.0000 0.57190  0.50000  0.86740  Biso   1.000  B 
  B392     1.0000 0.63260  0.50000  0.92810  Biso   1.000  B 
  C79      1.0000 0.57382  0.46851  0.75041  Biso   1.000  C 
  C80      1.0000 0.92575  0.45771  0.73298  Biso   1.000  C 
  C81      1.0000 0.55818  0.48541  0.69763  Biso   1.000  C 
  H183     1.0000 0.54141  0.45364  0.77043  Biso   1.000  H 
  H184     1.0000 0.59958  0.43681  0.74455  Biso   1.000  H 
  H185     1.0000 0.52282  0.46485  0.69036  Biso   1.000  H 
  C82      1.0000 0.59004  0.46860  0.65504  Biso   1.000  C 
  H186     1.0000 0.55523  0.52629  0.69757  Biso   1.000  H 
  H187     1.0000 0.59169  0.42654  0.65743  Biso   1.000  H 
  H188     1.0000 0.62839  0.48495  0.65484  Biso   1.000  H 
  C83      1.0000 0.91258  0.44160  0.78664  Biso   1.000  C 
  H189     1.0000 0.96685  0.46087  0.73108  Biso   1.000  H 
  H190     1.0000 0.91377  0.42881  0.70547  Biso   1.000  H 
  C84      1.0000 0.92429  0.48116  0.82594  Biso   1.000  C 
  H191     1.0000 0.93517  0.40827  0.79629  Biso   1.000  H 
  H192     1.0000 0.87300  0.43096  0.78864  Biso   1.000  H 
  H193     1.0000 0.96477  0.48157  0.83290  Biso   1.000  H 
  H194     1.0000 0.91190  0.51853  0.81395  Biso   1.000  H 
  H195     1.0000 0.57142  0.48013  0.62036  Biso   1.000  H 
  H196     1.0000 0.90510  0.47144  0.86106  Biso   1.000  H 
  B393     1.0000 0.86740  0.50000  0.42810  Biso   1.000  B 
  B394     1.0000 0.88280  0.50000  0.38280  Biso   1.000  B 
  B395     1.0000 0.92810  0.50000  0.36740  Biso   1.000  B 
  B396     1.0000 0.84350  0.50000  0.34350  Biso   1.000  B 
  B397     1.0000 0.79420  0.50000  0.35530  Biso   1.000  B 
  B398     1.0000 0.85530  0.50000  0.29420  Biso   1.000  B 
  B399     1.0000 0.75800  0.50000  0.32050  Biso   1.000  B 
  B400     1.0000 0.78510  0.50000  0.38860  Biso   1.000  B 
  B401     1.0000 0.82050  0.50000  0.25800  Biso   1.000  B 
  O29      1.0000 0.90692  0.49454  0.27856  Biso   1.000  O 
  B402     1.0000 0.76930  0.50000  0.26930  Biso   1.000  B 
  B403     1.0000 0.73070  0.50000  0.23070  Biso   1.000  B 
  B404     1.0000 0.72490  0.50000  0.33050  Biso   1.000  B 
  B405     1.0000 0.67950  0.50000  0.24200  Biso   1.000  B 
  B406     1.0000 0.83050  0.50000  0.22490  Biso   1.000  B 
  B407     1.0000 0.74200  0.50000  0.17950  Biso   1.000  B 
  B408     1.0000 0.64470  0.50000  0.20580  Biso   1.000  B 
  B409     1.0000 0.66950  0.50000  0.27510  Biso   1.000  B 
  B410     1.0000 0.70580  0.50000  0.14470  Biso   1.000  B 
  B411     1.0000 0.77510  0.50000  0.16950  Biso   1.000  B 
  B412     1.0000 0.65650  0.50000  0.15650  Biso   1.000  B 
  B413     1.0000 0.61720  0.50000  0.11720  Biso   1.000  B 
  O30      1.0000 0.59425  0.48916  0.22255  Biso   1.000  O 
  B414     1.0000 0.71490  0.50000  0.11140  Biso   1.000  B 
  B415     1.0000 0.57190  0.50000  0.13260  Biso   1.000  B 
  B416     1.0000 0.63260  0.50000  0.07190  Biso   1.000  B 
  C85      1.0000 0.57382  0.53149  0.24959  Biso   1.000  C 
  C86      1.0000 0.92575  0.54229  0.26702  Biso   1.000  C 
  C87      1.0000 0.55818  0.51459  0.30237  Biso   1.000  C 
  H197     1.0000 0.54141  0.54636  0.22957  Biso   1.000  H 
  H198     1.0000 0.59958  0.56319  0.25545  Biso   1.000  H 
  H199     1.0000 0.52282  0.53515  0.30964  Biso   1.000  H 
  C88      1.0000 0.59004  0.53140  0.34496  Biso   1.000  C 
  H200     1.0000 0.55523  0.47371  0.30243  Biso   1.000  H 
  H201     1.0000 0.59169  0.57346  0.34257  Biso   1.000  H 
  H202     1.0000 0.62839  0.51505  0.34515  Biso   1.000  H 
  C89      1.0000 0.91258  0.55840  0.21336  Biso   1.000  C 
  H203     1.0000 0.96685  0.53913  0.26892  Biso   1.000  H 
  H204     1.0000 0.91377  0.57119  0.29453  Biso   1.000  H 
  C90      1.0000 0.92429  0.51884  0.17406  Biso   1.000  C 
  H205     1.0000 0.93517  0.59173  0.20371  Biso   1.000  H 
  H206     1.0000 0.87300  0.56904  0.21136  Biso   1.000  H 
  H207     1.0000 0.96477  0.51843  0.16710  Biso   1.000  H 
  H208     1.0000 0.91190  0.48147  0.18605  Biso   1.000  H 
  H209     1.0000 0.57142  0.51987  0.37964  Biso   1.000  H 
  H210     1.0000 0.90510  0.52856  0.13893  Biso   1.000  H 
  B417     1.0000 0.13260  0.50000  0.42810  Biso   1.000  B 
  B418     1.0000 0.11720  0.50000  0.38280  Biso   1.000  B 
  B419     1.0000 0.07190  0.50000  0.36740  Biso   1.000  B 
  B420     1.0000 0.15650  0.50000  0.34350  Biso   1.000  B 
  B421     1.0000 0.20580  0.50000  0.35530  Biso   1.000  B 
  B422     1.0000 0.14470  0.50000  0.29420  Biso   1.000  B 
  B423     1.0000 0.24200  0.50000  0.32050  Biso   1.000  B 
  B424     1.0000 0.21490  0.50000  0.38860  Biso   1.000  B 
  B425     1.0000 0.17950  0.50000  0.25800  Biso   1.000  B 
  O31      1.0000 0.09308  0.50546  0.27856  Biso   1.000  O 
  B426     1.0000 0.23070  0.50000  0.26930  Biso   1.000  B 
  B427     1.0000 0.26930  0.50000  0.23070  Biso   1.000  B 
  B428     1.0000 0.27510  0.50000  0.33050  Biso   1.000  B 
  B429     1.0000 0.32050  0.50000  0.24200  Biso   1.000  B 
  B430     1.0000 0.16950  0.50000  0.22490  Biso   1.000  B 
  B431     1.0000 0.25800  0.50000  0.17950  Biso   1.000  B 
  B432     1.0000 0.35530  0.50000  0.20580  Biso   1.000  B 
  B433     1.0000 0.33050  0.50000  0.27510  Biso   1.000  B 
  B434     1.0000 0.29420  0.50000  0.14470  Biso   1.000  B 
  B435     1.0000 0.22490  0.50000  0.16950  Biso   1.000  B 
  B436     1.0000 0.34350  0.50000  0.15650  Biso   1.000  B 
  B437     1.0000 0.38280  0.50000  0.11720  Biso   1.000  B 
  O32      1.0000 0.40575  0.51084  0.22255  Biso   1.000  O 
  B438     1.0000 0.28510  0.50000  0.11140  Biso   1.000  B 
  B439     1.0000 0.42810  0.50000  0.13260  Biso   1.000  B 
  B440     1.0000 0.36740  0.50000  0.07190  Biso   1.000  B 
  C91      1.0000 0.42618  0.46851  0.24959  Biso   1.000  C 
  C92      1.0000 0.07425  0.45771  0.26702  Biso   1.000  C 
  C93      1.0000 0.44182  0.48541  0.30237  Biso   1.000  C 
  H211     1.0000 0.45859  0.45364  0.22957  Biso   1.000  H 
  H212     1.0000 0.40042  0.43681  0.25545  Biso   1.000  H 
  H213     1.0000 0.47718  0.46485  0.30964  Biso   1.000  H 
  C94      1.0000 0.40996  0.46860  0.34496  Biso   1.000  C 
  H214     1.0000 0.44477  0.52629  0.30243  Biso   1.000  H 
  H215     1.0000 0.40831  0.42654  0.34257  Biso   1.000  H 
  H216     1.0000 0.37161  0.48495  0.34515  Biso   1.000  H 
  C95      1.0000 0.08742  0.44160  0.21336  Biso   1.000  C 
  H217     1.0000 0.03315  0.46087  0.26892  Biso   1.000  H 
  H218     1.0000 0.08623  0.42881  0.29453  Biso   1.000  H 
  C96      1.0000 0.07572  0.48116  0.17406  Biso   1.000  C 
  H219     1.0000 0.06483  0.40827  0.20371  Biso   1.000  H 
  H220     1.0000 0.12700  0.43096  0.21136  Biso   1.000  H 
  H221     1.0000 0.03523  0.48157  0.16710  Biso   1.000  H 
  H222     1.0000 0.08810  0.51853  0.18605  Biso   1.000  H 
  H223     1.0000 0.42858  0.48013  0.37964  Biso   1.000  H 
  H224     1.0000 0.09490  0.47144  0.13893  Biso   1.000  H 
  B441     1.0000 0.07190  0.63260  0.50000  Biso   1.000  B 
  B442     1.0000 0.11720  0.61720  0.50000  Biso   1.000  B 
  B443     1.0000 0.13260  0.57190  0.50000  Biso   1.000  B 
  B444     1.0000 0.15650  0.65650  0.50000  Biso   1.000  B 
  B445     1.0000 0.14470  0.70580  0.50000  Biso   1.000  B 
  B446     1.0000 0.20580  0.64470  0.50000  Biso   1.000  B 
  B447     1.0000 0.17950  0.74200  0.50000  Biso   1.000  B 
  B448     1.0000 0.11140  0.71490  0.50000  Biso   1.000  B 
  B449     1.0000 0.24200  0.67950  0.50000  Biso   1.000  B 
  O33      1.0000 0.22287  0.59269  0.49449  Biso   1.000  O 
  B450     1.0000 0.23070  0.73070  0.50000  Biso   1.000  B 
  B451     1.0000 0.26930  0.76930  0.50000  Biso   1.000  B 
  B452     1.0000 0.16950  0.77510  0.50000  Biso   1.000  B 
  B453     1.0000 0.25800  0.82050  0.50000  Biso   1.000  B 
  B454     1.0000 0.27510  0.66950  0.50000  Biso   1.000  B 
  B455     1.0000 0.32050  0.75800  0.50000  Biso   1.000  B 
  B456     1.0000 0.29420  0.85530  0.50000  Biso   1.000  B 
  B457     1.0000 0.22490  0.83050  0.50000  Biso   1.000  B 
  B458     1.0000 0.35530  0.79420  0.50000  Biso   1.000  B 
  B459     1.0000 0.33050  0.72490  0.50000  Biso   1.000  B 
  B460     1.0000 0.34350  0.84350  0.50000  Biso   1.000  B 
  B461     1.0000 0.38280  0.88280  0.50000  Biso   1.000  B 
  O34      1.0000 0.28273  0.90194  0.47428  Biso   1.000  O 
  B462     1.0000 0.38860  0.78510  0.50000  Biso   1.000  B 
  B463     1.0000 0.36740  0.92810  0.50000  Biso   1.000  B 
  B464     1.0000 0.42810  0.86740  0.50000  Biso   1.000  B 
  C97      1.0000 0.24455  0.92881  0.49376  Biso   1.000  C 
  C98      1.0000 0.24268  0.57304  0.53945  Biso   1.000  C 
  C99      1.0000 0.20116  0.92031  0.45720  Biso   1.000  C 
  H225     1.0000 0.25627  0.96675  0.48778  Biso   1.000  H 
  H226     1.0000 0.23738  0.92382  0.53456  Biso   1.000  H 
  H227     1.0000 0.21340  0.94126  0.42264  Biso   1.000  H 
  C100     1.0000 0.15231  0.93981  0.47794  Biso   1.000  C 
  H228     1.0000 0.19722  0.88082  0.44474  Biso   1.000  H 
  H229     1.0000 0.12423  0.90986  0.47891  Biso   1.000  H 
  H230     1.0000 0.13710  0.97095  0.45216  Biso   1.000  H 
  C101     1.0000 0.29740  0.58883  0.55103  Biso   1.000  C 
  H231     1.0000 0.24222  0.53185  0.53515  Biso   1.000  H 
  H232     1.0000 0.21828  0.58284  0.57144  Biso   1.000  H 
  C102     1.0000 0.33427  0.58177  0.50820  Biso   1.000  C 
  H233     1.0000 0.31048  0.56501  0.58213  Biso   1.000  H 
  H234     1.0000 0.29882  0.62757  0.56457  Biso   1.000  H 
  H235     1.0000 0.33216  0.54365  0.49288  Biso   1.000  H 
  H236     1.0000 0.32713  0.60894  0.47816  Biso   1.000  H 
  H237     1.0000 0.15579  0.95464  0.51433  Biso   1.000  H 
  H238     1.0000 0.37217  0.58801  0.52304  Biso   1.000  H 
  B465     1.0000 0.07190  0.36740  0.50000  Biso   1.000  B 
  B466     1.0000 0.11720  0.38280  0.50000  Biso   1.000  B 
  B467     1.0000 0.13260  0.42810  0.50000  Biso   1.000  B 
  B468     1.0000 0.15650  0.34350  0.50000  Biso   1.000  B 
  B469     1.0000 0.14470  0.29420  0.50000  Biso   1.000  B 
  B470     1.0000 0.20580  0.35530  0.50000  Biso   1.000  B 
  B471     1.0000 0.17950  0.25800  0.50000  Biso   1.000  B 
  B472     1.0000 0.11140  0.28510  0.50000  Biso   1.000  B 
  B473     1.0000 0.24200  0.32050  0.50000  Biso   1.000  B 
  O35      1.0000 0.22287  0.40731  0.50551  Biso   1.000  O 
  B474     1.0000 0.23070  0.26930  0.50000  Biso   1.000  B 
  B475     1.0000 0.26930  0.23070  0.50000  Biso   1.000  B 
  B476     1.0000 0.16950  0.22490  0.50000  Biso   1.000  B 
  B477     1.0000 0.25800  0.17950  0.50000  Biso   1.000  B 
  B478     1.0000 0.27510  0.33050  0.50000  Biso   1.000  B 
  B479     1.0000 0.32050  0.24200  0.50000  Biso   1.000  B 
  B480     1.0000 0.29420  0.14470  0.50000  Biso   1.000  B 
  B481     1.0000 0.22490  0.16950  0.50000  Biso   1.000  B 
  B482     1.0000 0.35530  0.20580  0.50000  Biso   1.000  B 
  B483     1.0000 0.33050  0.27510  0.50000  Biso   1.000  B 
  B484     1.0000 0.34350  0.15650  0.50000  Biso   1.000  B 
  B485     1.0000 0.38280  0.11720  0.50000  Biso   1.000  B 
  O36      1.0000 0.28273  0.09806  0.52572  Biso   1.000  O 
  B486     1.0000 0.38860  0.21490  0.50000  Biso   1.000  B 
  B487     1.0000 0.36740  0.07190  0.50000  Biso   1.000  B 
  B488     1.0000 0.42810  0.13260  0.50000  Biso   1.000  B 
  C103     1.0000 0.24455  0.07119  0.50624  Biso   1.000  C 
  C104     1.0000 0.24268  0.42696  0.46055  Biso   1.000  C 
  C105     1.0000 0.20116  0.07969  0.54280  Biso   1.000  C 
  H239     1.0000 0.25627  0.03325  0.51222  Biso   1.000  H 
  H240     1.0000 0.23738  0.07618  0.46544  Biso   1.000  H 
  H241     1.0000 0.21340  0.05874  0.57736  Biso   1.000  H 
  C106     1.0000 0.15231  0.06019  0.52206  Biso   1.000  C 
  H242     1.0000 0.19722  0.11918  0.55526  Biso   1.000  H 
  H243     1.0000 0.12423  0.09014  0.52109  Biso   1.000  H 
  H244     1.0000 0.13710  0.02905  0.54784  Biso   1.000  H 
  C107     1.0000 0.29740  0.41117  0.44897  Biso   1.000  C 
  H245     1.0000 0.24222  0.46815  0.46485  Biso   1.000  H 
  H246     1.0000 0.21828  0.41716  0.42856  Biso   1.000  H 
  C108     1.0000 0.33427  0.41823  0.49180  Biso   1.000  C 
  H247     1.0000 0.31048  0.43499  0.41787  Biso   1.000  H 
  H248     1.0000 0.29882  0.37243  0.43543  Biso   1.000  H 
  H249     1.0000 0.33216  0.45635  0.50712  Biso   1.000  H 
  H250     1.0000 0.32713  0.39106  0.52184  Biso   1.000  H 
  H251     1.0000 0.15579  0.04536  0.48567  Biso   1.000  H 
  H252     1.0000 0.37217  0.41199  0.47696  Biso   1.000  H 
  B489     1.0000 0.92810  0.36740  0.50000  Biso   1.000  B 
  B490     1.0000 0.88280  0.38280  0.50000  Biso   1.000  B 
  B491     1.0000 0.86740  0.42810  0.50000  Biso   1.000  B 
  B492     1.0000 0.84350  0.34350  0.50000  Biso   1.000  B 
  B493     1.0000 0.85530  0.29420  0.50000  Biso   1.000  B 
  B494     1.0000 0.79420  0.35530  0.50000  Biso   1.000  B 
  B495     1.0000 0.82050  0.25800  0.50000  Biso   1.000  B 
  B496     1.0000 0.88860  0.28510  0.50000  Biso   1.000  B 
  B497     1.0000 0.75800  0.32050  0.50000  Biso   1.000  B 
  O37      1.0000 0.77713  0.40731  0.49449  Biso   1.000  O 
  B498     1.0000 0.76930  0.26930  0.50000  Biso   1.000  B 
  B499     1.0000 0.73070  0.23070  0.50000  Biso   1.000  B 
  B500     1.0000 0.83050  0.22490  0.50000  Biso   1.000  B 
  B501     1.0000 0.74200  0.17950  0.50000  Biso   1.000  B 
  B502     1.0000 0.72490  0.33050  0.50000  Biso   1.000  B 
  B503     1.0000 0.67950  0.24200  0.50000  Biso   1.000  B 
  B504     1.0000 0.70580  0.14470  0.50000  Biso   1.000  B 
  B505     1.0000 0.77510  0.16950  0.50000  Biso   1.000  B 
  B506     1.0000 0.64470  0.20580  0.50000  Biso   1.000  B 
  B507     1.0000 0.66950  0.27510  0.50000  Biso   1.000  B 
  B508     1.0000 0.65650  0.15650  0.50000  Biso   1.000  B 
  B509     1.0000 0.61720  0.11720  0.50000  Biso   1.000  B 
  O38      1.0000 0.71727  0.09806  0.47428  Biso   1.000  O 
  B510     1.0000 0.61140  0.21490  0.50000  Biso   1.000  B 
  B511     1.0000 0.63260  0.07190  0.50000  Biso   1.000  B 
  B512     1.0000 0.57190  0.13260  0.50000  Biso   1.000  B 
  C109     1.0000 0.75545  0.07119  0.49376  Biso   1.000  C 
  C110     1.0000 0.75732  0.42696  0.53945  Biso   1.000  C 
  C111     1.0000 0.79884  0.07969  0.45720  Biso   1.000  C 
  H253     1.0000 0.74373  0.03325  0.48778  Biso   1.000  H 
  H254     1.0000 0.76262  0.07618  0.53456  Biso   1.000  H 
  H255     1.0000 0.78660  0.05874  0.42264  Biso   1.000  H 
  C112     1.0000 0.84769  0.06019  0.47794  Biso   1.000  C 
  H256     1.0000 0.80278  0.11918  0.44474  Biso   1.000  H 
  H257     1.0000 0.87577  0.09014  0.47891  Biso   1.000  H 
  H258     1.0000 0.86290  0.02905  0.45216  Biso   1.000  H 
  C113     1.0000 0.70260  0.41117  0.55103  Biso   1.000  C 
  H259     1.0000 0.75778  0.46815  0.53515  Biso   1.000  H 
  H260     1.0000 0.78172  0.41716  0.57144  Biso   1.000  H 
  C114     1.0000 0.66573  0.41823  0.50820  Biso   1.000  C 
  H261     1.0000 0.68952  0.43499  0.58213  Biso   1.000  H 
  H262     1.0000 0.70117  0.37243  0.56457  Biso   1.000  H 
  H263     1.0000 0.66784  0.45635  0.49288  Biso   1.000  H 
  H264     1.0000 0.67287  0.39106  0.47816  Biso   1.000  H 
  H265     1.0000 0.84421  0.04536  0.51433  Biso   1.000  H 
  H266     1.0000 0.62783  0.41199  0.52304  Biso   1.000  H 
  B513     1.0000 0.92810  0.63260  0.50000  Biso   1.000  B 
  B514     1.0000 0.88280  0.61720  0.50000  Biso   1.000  B 
  B515     1.0000 0.86740  0.57190  0.50000  Biso   1.000  B 
  B516     1.0000 0.84350  0.65650  0.50000  Biso   1.000  B 
  B517     1.0000 0.85530  0.70580  0.50000  Biso   1.000  B 
  B518     1.0000 0.79420  0.64470  0.50000  Biso   1.000  B 
  B519     1.0000 0.82050  0.74200  0.50000  Biso   1.000  B 
  B520     1.0000 0.88860  0.71490  0.50000  Biso   1.000  B 
  B521     1.0000 0.75800  0.67950  0.50000  Biso   1.000  B 
  O39      1.0000 0.77713  0.59269  0.50551  Biso   1.000  O 
  B522     1.0000 0.76930  0.73070  0.50000  Biso   1.000  B 
  B523     1.0000 0.73070  0.76930  0.50000  Biso   1.000  B 
  B524     1.0000 0.83050  0.77510  0.50000  Biso   1.000  B 
  B525     1.0000 0.74200  0.82050  0.50000  Biso   1.000  B 
  B526     1.0000 0.72490  0.66950  0.50000  Biso   1.000  B 
  B527     1.0000 0.67950  0.75800  0.50000  Biso   1.000  B 
  B528     1.0000 0.70580  0.85530  0.50000  Biso   1.000  B 
  B529     1.0000 0.77510  0.83050  0.50000  Biso   1.000  B 
  B530     1.0000 0.64470  0.79420  0.50000  Biso   1.000  B 
  B531     1.0000 0.66950  0.72490  0.50000  Biso   1.000  B 
  B532     1.0000 0.65650  0.84350  0.50000  Biso   1.000  B 
  B533     1.0000 0.61720  0.88280  0.50000  Biso   1.000  B 
  O40      1.0000 0.71727  0.90194  0.52572  Biso   1.000  O 
  B534     1.0000 0.61140  0.78510  0.50000  Biso   1.000  B 
  B535     1.0000 0.63260  0.92810  0.50000  Biso   1.000  B 
  B536     1.0000 0.57190  0.86740  0.50000  Biso   1.000  B 
  C115     1.0000 0.75545  0.92881  0.50624  Biso   1.000  C 
  C116     1.0000 0.75732  0.57304  0.46055  Biso   1.000  C 
  C117     1.0000 0.79884  0.92031  0.54280  Biso   1.000  C 
  H267     1.0000 0.74373  0.96675  0.51222  Biso   1.000  H 
  H268     1.0000 0.76262  0.92382  0.46544  Biso   1.000  H 
  H269     1.0000 0.78660  0.94126  0.57736  Biso   1.000  H 
  C118     1.0000 0.84769  0.93981  0.52206  Biso   1.000  C 
  H270     1.0000 0.80278  0.88082  0.55526  Biso   1.000  H 
  H271     1.0000 0.87577  0.90986  0.52109  Biso   1.000  H 
  H272     1.0000 0.86290  0.97095  0.54784  Biso   1.000  H 
  C119     1.0000 0.70260  0.58883  0.44897  Biso   1.000  C 
  H273     1.0000 0.75778  0.53185  0.46485  Biso   1.000  H 
  H274     1.0000 0.78172  0.58284  0.42856  Biso   1.000  H 
  C120     1.0000 0.66573  0.58177  0.49180  Biso   1.000  C 
  H275     1.0000 0.68952  0.56501  0.41787  Biso   1.000  H 
  H276     1.0000 0.70117  0.62757  0.43543  Biso   1.000  H 
  H277     1.0000 0.66784  0.54365  0.50712  Biso   1.000  H 
  H278     1.0000 0.67287  0.60894  0.52184  Biso   1.000  H 
  H279     1.0000 0.84421  0.95464  0.48567  Biso   1.000  H 
  H280     1.0000 0.62783  0.58801  0.47696  Biso   1.000  H 
  B537     1.0000 0.50000  0.07190  0.63260  Biso   1.000  B 
  B538     1.0000 0.50000  0.11720  0.61720  Biso   1.000  B 
  B539     1.0000 0.50000  0.13260  0.57190  Biso   1.000  B 
  B540     1.0000 0.50000  0.15650  0.65650  Biso   1.000  B 
  B541     1.0000 0.50000  0.14470  0.70580  Biso   1.000  B 
  B542     1.0000 0.50000  0.20580  0.64470  Biso   1.000  B 
  B543     1.0000 0.50000  0.17950  0.74200  Biso   1.000  B 
  B544     1.0000 0.50000  0.11140  0.71490  Biso   1.000  B 
  B545     1.0000 0.50000  0.24200  0.67950  Biso   1.000  B 
  O41      1.0000 0.49417  0.22150  0.59311  Biso   1.000  O 
  B546     1.0000 0.50000  0.23070  0.73070  Biso   1.000  B 
  B547     1.0000 0.50000  0.26930  0.76930  Biso   1.000  B 
  B548     1.0000 0.50000  0.16950  0.77510  Biso   1.000  B 
  B549     1.0000 0.50000  0.25800  0.82050  Biso   1.000  B 
  B550     1.0000 0.50000  0.27510  0.66950  Biso   1.000  B 
  B551     1.0000 0.50000  0.32050  0.75800  Biso   1.000  B 
  B552     1.0000 0.50000  0.29420  0.85530  Biso   1.000  B 
  B553     1.0000 0.50000  0.22490  0.83050  Biso   1.000  B 
  B554     1.0000 0.50000  0.35530  0.79420  Biso   1.000  B 
  B555     1.0000 0.50000  0.33050  0.72490  Biso   1.000  B 
  B556     1.0000 0.50000  0.34350  0.84350  Biso   1.000  B 
  B557     1.0000 0.50000  0.38280  0.88280  Biso   1.000  B 
  O42      1.0000 0.47945  0.28231  0.90564  Biso   1.000  O 
  B558     1.0000 0.50000  0.38860  0.78510  Biso   1.000  B 
  B559     1.0000 0.50000  0.36740  0.92810  Biso   1.000  B 
  B560     1.0000 0.50000  0.42810  0.86740  Biso   1.000  B 
  C121     1.0000 0.49087  0.23515  0.92496  Biso   1.000  C 
  C122     1.0000 0.54179  0.23334  0.57407  Biso   1.000  C 
  C123     1.0000 0.44935  0.19581  0.91255  Biso   1.000  C 
  H281     1.0000 0.48769  0.23955  0.96485  Biso   1.000  H 
  H282     1.0000 0.52992  0.22314  0.91641  Biso   1.000  H 
  H283     1.0000 0.42051  0.19464  0.94389  Biso   1.000  H 
  C124     1.0000 0.47516  0.14584  0.90750  Biso   1.000  C 
  H284     1.0000 0.43057  0.20640  0.87761  Biso   1.000  H 
  H285     1.0000 0.45220  0.12029  0.88456  Biso   1.000  H 
  H286     1.0000 0.48125  0.12777  0.94503  Biso   1.000  H 
  C125     1.0000 0.55760  0.28723  0.58665  Biso   1.000  C 
  H287     1.0000 0.53855  0.23108  0.53299  Biso   1.000  H 
  H288     1.0000 0.57096  0.20617  0.58621  Biso   1.000  H 
  C126     1.0000 0.51740  0.32615  0.57572  Biso   1.000  C 
  H289     1.0000 0.59045  0.29717  0.56347  Biso   1.000  H 
  H290     1.0000 0.56889  0.28933  0.62607  Biso   1.000  H 
  H291     1.0000 0.51920  0.33685  0.53600  Biso   1.000  H 
  H292     1.0000 0.47964  0.31212  0.58446  Biso   1.000  H 
  H293     1.0000 0.51241  0.15032  0.89125  Biso   1.000  H 
  H294     1.0000 0.52467  0.35963  0.59860  Biso   1.000  H 
  B561     1.0000 0.50000  0.07190  0.36740  Biso   1.000  B 
  B562     1.0000 0.50000  0.11720  0.38280  Biso   1.000  B 
  B563     1.0000 0.50000  0.13260  0.42810  Biso   1.000  B 
  B564     1.0000 0.50000  0.15650  0.34350  Biso   1.000  B 
  B565     1.0000 0.50000  0.14470  0.29420  Biso   1.000  B 
  B566     1.0000 0.50000  0.20580  0.35530  Biso   1.000  B 
  B567     1.0000 0.50000  0.17950  0.25800  Biso   1.000  B 
  B568     1.0000 0.50000  0.11140  0.28510  Biso   1.000  B 
  B569     1.0000 0.50000  0.24200  0.32050  Biso   1.000  B 
  O43      1.0000 0.50583  0.22150  0.40689  Biso   1.000  O 
  B570     1.0000 0.50000  0.23070  0.26930  Biso   1.000  B 
  B571     1.0000 0.50000  0.26930  0.23070  Biso   1.000  B 
  B572     1.0000 0.50000  0.16950  0.22490  Biso   1.000  B 
  B573     1.0000 0.50000  0.25800  0.17950  Biso   1.000  B 
  B574     1.0000 0.50000  0.27510  0.33050  Biso   1.000  B 
  B575     1.0000 0.50000  0.32050  0.24200  Biso   1.000  B 
  B576     1.0000 0.50000  0.29420  0.14470  Biso   1.000  B 
  B577     1.0000 0.50000  0.22490  0.16950  Biso   1.000  B 
  B578     1.0000 0.50000  0.35530  0.20580  Biso   1.000  B 
  B579     1.0000 0.50000  0.33050  0.27510  Biso   1.000  B 
  B580     1.0000 0.50000  0.34350  0.15650  Biso   1.000  B 
  B581     1.0000 0.50000  0.38280  0.11720  Biso   1.000  B 
  O44      1.0000 0.52055  0.28231  0.09436  Biso   1.000  O 
  B582     1.0000 0.50000  0.38860  0.21490  Biso   1.000  B 
  B583     1.0000 0.50000  0.36740  0.07190  Biso   1.000  B 
  B584     1.0000 0.50000  0.42810  0.13260  Biso   1.000  B 
  C127     1.0000 0.50913  0.23515  0.07504  Biso   1.000  C 
  C128     1.0000 0.45821  0.23334  0.42593  Biso   1.000  C 
  C129     1.0000 0.55065  0.19581  0.08745  Biso   1.000  C 
  H295     1.0000 0.51231  0.23955  0.03515  Biso   1.000  H 
  H296     1.0000 0.47008  0.22314  0.08359  Biso   1.000  H 
  H297     1.0000 0.57949  0.19464  0.05611  Biso   1.000  H 
  C130     1.0000 0.52484  0.14584  0.09250  Biso   1.000  C 
  H298     1.0000 0.56943  0.20640  0.12238  Biso   1.000  H 
  H299     1.0000 0.54780  0.12029  0.11544  Biso   1.000  H 
  H300     1.0000 0.51875  0.12777  0.05497  Biso   1.000  H 
  C131     1.0000 0.44240  0.28723  0.41335  Biso   1.000  C 
  H301     1.0000 0.46145  0.23108  0.46701  Biso   1.000  H 
  H302     1.0000 0.42904  0.20617  0.41379  Biso   1.000  H 
  C132     1.0000 0.48260  0.32615  0.42428  Biso   1.000  C 
  H303     1.0000 0.40955  0.29717  0.43653  Biso   1.000  H 
  H304     1.0000 0.43111  0.28933  0.37393  Biso   1.000  H 
  H305     1.0000 0.48080  0.33685  0.46400  Biso   1.000  H 
  H306     1.0000 0.52036  0.31212  0.41554  Biso   1.000  H 
  H307     1.0000 0.48759  0.15032  0.10875  Biso   1.000  H 
  H308     1.0000 0.47533  0.35963  0.40140  Biso   1.000  H 
  B585     1.0000 0.50000  0.92810  0.36740  Biso   1.000  B 
  B586     1.0000 0.50000  0.88280  0.38280  Biso   1.000  B 
  B587     1.0000 0.50000  0.86740  0.42810  Biso   1.000  B 
  B588     1.0000 0.50000  0.84350  0.34350  Biso   1.000  B 
  B589     1.0000 0.50000  0.85530  0.29420  Biso   1.000  B 
  B590     1.0000 0.50000  0.79420  0.35530  Biso   1.000  B 
  B591     1.0000 0.50000  0.82050  0.25800  Biso   1.000  B 
  B592     1.0000 0.50000  0.88860  0.28510  Biso   1.000  B 
  B593     1.0000 0.50000  0.75800  0.32050  Biso   1.000  B 
  O45      1.0000 0.49417  0.77850  0.40689  Biso   1.000  O 
  B594     1.0000 0.50000  0.76930  0.26930  Biso   1.000  B 
  B595     1.0000 0.50000  0.73070  0.23070  Biso   1.000  B 
  B596     1.0000 0.50000  0.83050  0.22490  Biso   1.000  B 
  B597     1.0000 0.50000  0.74200  0.17950  Biso   1.000  B 
  B598     1.0000 0.50000  0.72490  0.33050  Biso   1.000  B 
  B599     1.0000 0.50000  0.67950  0.24200  Biso   1.000  B 
  B600     1.0000 0.50000  0.70580  0.14470  Biso   1.000  B 
  B601     1.0000 0.50000  0.77510  0.16950  Biso   1.000  B 
  B602     1.0000 0.50000  0.64470  0.20580  Biso   1.000  B 
  B603     1.0000 0.50000  0.66950  0.27510  Biso   1.000  B 
  B604     1.0000 0.50000  0.65650  0.15650  Biso   1.000  B 
  B605     1.0000 0.50000  0.61720  0.11720  Biso   1.000  B 
  O46      1.0000 0.47945  0.71769  0.09436  Biso   1.000  O 
  B606     1.0000 0.50000  0.61140  0.21490  Biso   1.000  B 
  B607     1.0000 0.50000  0.63260  0.07190  Biso   1.000  B 
  B608     1.0000 0.50000  0.57190  0.13260  Biso   1.000  B 
  C133     1.0000 0.49087  0.76485  0.07504  Biso   1.000  C 
  C134     1.0000 0.54179  0.76666  0.42593  Biso   1.000  C 
  C135     1.0000 0.44935  0.80419  0.08745  Biso   1.000  C 
  H309     1.0000 0.48769  0.76046  0.03515  Biso   1.000  H 
  H310     1.0000 0.52992  0.77686  0.08359  Biso   1.000  H 
  H311     1.0000 0.42051  0.80536  0.05611  Biso   1.000  H 
  C136     1.0000 0.47516  0.85416  0.09250  Biso   1.000  C 
  H312     1.0000 0.43057  0.79360  0.12238  Biso   1.000  H 
  H313     1.0000 0.45220  0.87971  0.11544  Biso   1.000  H 
  H314     1.0000 0.48125  0.87223  0.05497  Biso   1.000  H 
  C137     1.0000 0.55760  0.71277  0.41335  Biso   1.000  C 
  H315     1.0000 0.53855  0.76892  0.46701  Biso   1.000  H 
  H316     1.0000 0.57096  0.79383  0.41379  Biso   1.000  H 
  C138     1.0000 0.51740  0.67385  0.42428  Biso   1.000  C 
  H317     1.0000 0.59045  0.70283  0.43653  Biso   1.000  H 
  H318     1.0000 0.56889  0.71067  0.37393  Biso   1.000  H 
  H319     1.0000 0.51920  0.66315  0.46400  Biso   1.000  H 
  H320     1.0000 0.47964  0.68788  0.41554  Biso   1.000  H 
  H321     1.0000 0.51241  0.84968  0.10875  Biso   1.000  H 
  H322     1.0000 0.52467  0.64037  0.40140  Biso   1.000  H 
  B609     1.0000 0.50000  0.92810  0.63260  Biso   1.000  B 
  B610     1.0000 0.50000  0.88280  0.61720  Biso   1.000  B 
  B611     1.0000 0.50000  0.86740  0.57190  Biso   1.000  B 
  B612     1.0000 0.50000  0.84350  0.65650  Biso   1.000  B 
  B613     1.0000 0.50000  0.85530  0.70580  Biso   1.000  B 
  B614     1.0000 0.50000  0.79420  0.64470  Biso   1.000  B 
  B615     1.0000 0.50000  0.82050  0.74200  Biso   1.000  B 
  B616     1.0000 0.50000  0.88860  0.71490  Biso   1.000  B 
  B617     1.0000 0.50000  0.75800  0.67950  Biso   1.000  B 
  O47      1.0000 0.50583  0.77850  0.59311  Biso   1.000  O 
  B618     1.0000 0.50000  0.76930  0.73070  Biso   1.000  B 
  B619     1.0000 0.50000  0.73070  0.76930  Biso   1.000  B 
  B620     1.0000 0.50000  0.83050  0.77510  Biso   1.000  B 
  B621     1.0000 0.50000  0.74200  0.82050  Biso   1.000  B 
  B622     1.0000 0.50000  0.72490  0.66950  Biso   1.000  B 
  B623     1.0000 0.50000  0.67950  0.75800  Biso   1.000  B 
  B624     1.0000 0.50000  0.70580  0.85530  Biso   1.000  B 
  B625     1.0000 0.50000  0.77510  0.83050  Biso   1.000  B 
  B626     1.0000 0.50000  0.64470  0.79420  Biso   1.000  B 
  B627     1.0000 0.50000  0.66950  0.72490  Biso   1.000  B 
  B628     1.0000 0.50000  0.65650  0.84350  Biso   1.000  B 
  B629     1.0000 0.50000  0.61720  0.88280  Biso   1.000  B 
  O48      1.0000 0.52055  0.71769  0.90564  Biso   1.000  O 
  B630     1.0000 0.50000  0.61140  0.78510  Biso   1.000  B 
  B631     1.0000 0.50000  0.63260  0.92810  Biso   1.000  B 
  B632     1.0000 0.50000  0.57190  0.86740  Biso   1.000  B 
  C139     1.0000 0.50913  0.76485  0.92496  Biso   1.000  C 
  C140     1.0000 0.45821  0.76666  0.57407  Biso   1.000  C 
  C141     1.0000 0.55065  0.80419  0.91255  Biso   1.000  C 
  H323     1.0000 0.51231  0.76046  0.96485  Biso   1.000  H 
  H324     1.0000 0.47008  0.77686  0.91641  Biso   1.000  H 
  H325     1.0000 0.57949  0.80536  0.94389  Biso   1.000  H 
  C142     1.0000 0.52484  0.85416  0.90750  Biso   1.000  C 
  H326     1.0000 0.56943  0.79360  0.87761  Biso   1.000  H 
  H327     1.0000 0.54780  0.87971  0.88456  Biso   1.000  H 
  H328     1.0000 0.51875  0.87223  0.94503  Biso   1.000  H 
  C143     1.0000 0.44240  0.71277  0.58665  Biso   1.000  C 
  H329     1.0000 0.46145  0.76892  0.53299  Biso   1.000  H 
  H330     1.0000 0.42904  0.79383  0.58621  Biso   1.000  H 
  C144     1.0000 0.48260  0.67385  0.57572  Biso   1.000  C 
  H331     1.0000 0.40955  0.70283  0.56347  Biso   1.000  H 
  H332     1.0000 0.43111  0.71067  0.62607  Biso   1.000  H 
  H333     1.0000 0.48080  0.66315  0.53600  Biso   1.000  H 
  H334     1.0000 0.52036  0.68788  0.58446  Biso   1.000  H 
  H335     1.0000 0.48759  0.84968  0.89125  Biso   1.000  H 
  H336     1.0000 0.47533  0.64037  0.59860  Biso   1.000  H 
