data_image0
_cell_length_a       26.896
_cell_length_b       26.896
_cell_length_c       26.896
_cell_angle_alpha    90
_cell_angle_beta     90
_cell_angle_gamma    90

_symmetry_space_group_name_H-M    "P 1"
_symmetry_int_tables_number       1

loop_
  _symmetry_equiv_pos_as_xyz
  'x, y, z'

loop_
  _atom_site_label
  _atom_site_occupancy
  _atom_site_fract_x
  _atom_site_fract_y
  _atom_site_fract_z
  _atom_site_thermal_displace_type
  _atom_site_B_iso_or_equiv
  _atom_site_type_symbol
  B1       1.0000 0.09204  0.00000  0.00000  Biso   1.000  B 
  B2       1.0000 0.90796  0.00000  0.00000  Biso   1.000  B 
  B3       1.0000 0.00000  0.09204  0.00000  Biso   1.000  B 
  B4       1.0000 0.00000  0.90796  0.00000  Biso   1.000  B 
  B5       1.0000 0.00000  0.00000  0.09204  Biso   1.000  B 
  B6       1.0000 0.00000  0.00000  0.90796  Biso   1.000  B 
  B7       1.0000 0.09204  0.50000  0.50000  Biso   1.000  B 
  B8       1.0000 0.90796  0.50000  0.50000  Biso   1.000  B 
  B9       1.0000 0.00000  0.59204  0.50000  Biso   1.000  B 
  B10      1.0000 0.00000  0.40796  0.50000  Biso   1.000  B 
  B11      1.0000 0.00000  0.50000  0.59204  Biso   1.000  B 
  B12      1.0000 0.00000  0.50000  0.40796  Biso   1.000  B 
  B13      1.0000 0.59204  0.00000  0.50000  Biso   1.000  B 
  B14      1.0000 0.40796  0.00000  0.50000  Biso   1.000  B 
  B15      1.0000 0.50000  0.09204  0.50000  Biso   1.000  B 
  B16      1.0000 0.50000  0.90796  0.50000  Biso   1.000  B 
  B17      1.0000 0.50000  0.00000  0.59204  Biso   1.000  B 
  B18      1.0000 0.50000  0.00000  0.40796  Biso   1.000  B 
  B19      1.0000 0.59204  0.50000  0.00000  Biso   1.000  B 
  B20      1.0000 0.40796  0.50000  0.00000  Biso   1.000  B 
  B21      1.0000 0.50000  0.59204  0.00000  Biso   1.000  B 
  B22      1.0000 0.50000  0.40796  0.00000  Biso   1.000  B 
  B23      1.0000 0.50000  0.50000  0.09204  Biso   1.000  B 
  B24      1.0000 0.50000  0.50000  0.90796  Biso   1.000  B 
  B25      1.0000 0.04540  0.04540  0.04540  Biso   1.000  B 
  B26      1.0000 0.95460  0.95460  0.04540  Biso   1.000  B 
  B27      1.0000 0.95460  0.04540  0.95460  Biso   1.000  B 
  B28      1.0000 0.04540  0.95460  0.95460  Biso   1.000  B 
  B29      1.0000 0.04540  0.04540  0.95460  Biso   1.000  B 
  B30      1.0000 0.95460  0.95460  0.95460  Biso   1.000  B 
  B31      1.0000 0.04540  0.95460  0.04540  Biso   1.000  B 
  B32      1.0000 0.95460  0.04540  0.04540  Biso   1.000  B 
  B33      1.0000 0.04540  0.54540  0.54540  Biso   1.000  B 
  B34      1.0000 0.95460  0.45460  0.54540  Biso   1.000  B 
  B35      1.0000 0.95460  0.54540  0.45460  Biso   1.000  B 
  B36      1.0000 0.04540  0.45460  0.45460  Biso   1.000  B 
  B37      1.0000 0.04540  0.54540  0.45460  Biso   1.000  B 
  B38      1.0000 0.95460  0.45460  0.45460  Biso   1.000  B 
  B39      1.0000 0.04540  0.45460  0.54540  Biso   1.000  B 
  B40      1.0000 0.95460  0.54540  0.54540  Biso   1.000  B 
  B41      1.0000 0.54540  0.04540  0.54540  Biso   1.000  B 
  B42      1.0000 0.45460  0.95460  0.54540  Biso   1.000  B 
  B43      1.0000 0.45460  0.04540  0.45460  Biso   1.000  B 
  B44      1.0000 0.54540  0.95460  0.45460  Biso   1.000  B 
  B45      1.0000 0.54540  0.04540  0.45460  Biso   1.000  B 
  B46      1.0000 0.45460  0.95460  0.45460  Biso   1.000  B 
  B47      1.0000 0.54540  0.95460  0.54540  Biso   1.000  B 
  B48      1.0000 0.45460  0.04540  0.54540  Biso   1.000  B 
  B49      1.0000 0.54540  0.54540  0.04540  Biso   1.000  B 
  B50      1.0000 0.45460  0.45460  0.04540  Biso   1.000  B 
  B51      1.0000 0.45460  0.54540  0.95460  Biso   1.000  B 
  B52      1.0000 0.54540  0.45460  0.95460  Biso   1.000  B 
  B53      1.0000 0.54540  0.54540  0.95460  Biso   1.000  B 
  B54      1.0000 0.45460  0.45460  0.95460  Biso   1.000  B 
  B55      1.0000 0.54540  0.45460  0.04540  Biso   1.000  B 
  B56      1.0000 0.45460  0.54540  0.04540  Biso   1.000  B 
  B57      1.0000 0.13260  0.00000  0.07190  Biso   1.000  B 
  B58      1.0000 0.11720  0.00000  0.11720  Biso   1.000  B 
  B59      1.0000 0.07190  0.00000  0.13260  Biso   1.000  B 
  B60      1.0000 0.15650  0.00000  0.15650  Biso   1.000  B 
  B61      1.0000 0.20580  0.00000  0.14470  Biso   1.000  B 
  B62      1.0000 0.14470  0.00000  0.20580  Biso   1.000  B 
  B63      1.0000 0.24200  0.00000  0.17950  Biso   1.000  B 
  B64      1.0000 0.21490  0.00000  0.11140  Biso   1.000  B 
  B65      1.0000 0.17950  0.00000  0.24200  Biso   1.000  B 
  B66      1.0000 0.11140  0.00000  0.21490  Biso   1.000  B 
  B67      1.0000 0.23070  0.00000  0.23070  Biso   1.000  B 
  B68      1.0000 0.26930  0.00000  0.26930  Biso   1.000  B 
  B69      1.0000 0.27510  0.00000  0.16950  Biso   1.000  B 
  B70      1.0000 0.32050  0.00000  0.25800  Biso   1.000  B 
  B71      1.0000 0.16950  0.00000  0.27510  Biso   1.000  B 
  B72      1.0000 0.25800  0.00000  0.32050  Biso   1.000  B 
  B73      1.0000 0.35530  0.00000  0.29420  Biso   1.000  B 
  B74      1.0000 0.33050  0.00000  0.22490  Biso   1.000  B 
  B75      1.0000 0.29420  0.00000  0.35530  Biso   1.000  B 
  B76      1.0000 0.22490  0.00000  0.33050  Biso   1.000  B 
  B77      1.0000 0.34350  0.00000  0.34350  Biso   1.000  B 
  B78      1.0000 0.38280  0.00000  0.38280  Biso   1.000  B 
  O1       1.0000 0.40661  0.01050  0.27690  Biso   1.000  O 
  B79      1.0000 0.28510  0.00000  0.38860  Biso   1.000  B 
  B80      1.0000 0.42810  0.00000  0.36740  Biso   1.000  B 
  B81      1.0000 0.36740  0.00000  0.42810  Biso   1.000  B 
  C1       1.0000 0.40693  0.06104  0.25913  Biso   1.000  C 
  C2       1.0000 0.42931  0.06343  0.20809  Biso   1.000  C 
  H1       1.0000 0.42945  0.08261  0.28463  Biso   1.000  H 
  H2       1.0000 0.37058  0.08117  0.25817  Biso   1.000  H 
  H3       1.0000 0.43359  0.10352  0.20081  Biso   1.000  H 
  C3       1.0000 0.39846  0.04225  0.16503  Biso   1.000  C 
  H4       1.0000 0.46707  0.04555  0.20945  Biso   1.000  H 
  H5       1.0000 0.39080  0.00203  0.16808  Biso   1.000  H 
  H6       1.0000 0.41774  0.05050  0.12895  Biso   1.000  H 
  H7       1.0000 0.36233  0.06289  0.16572  Biso   1.000  H 
  B82      1.0000 0.86740  0.00000  0.07190  Biso   1.000  B 
  B83      1.0000 0.88280  0.00000  0.11720  Biso   1.000  B 
  B84      1.0000 0.92810  0.00000  0.13260  Biso   1.000  B 
  B85      1.0000 0.84350  0.00000  0.15650  Biso   1.000  B 
  B86      1.0000 0.79420  0.00000  0.14470  Biso   1.000  B 
  B87      1.0000 0.85530  0.00000  0.20580  Biso   1.000  B 
  B88      1.0000 0.75800  0.00000  0.17950  Biso   1.000  B 
  B89      1.0000 0.78510  0.00000  0.11140  Biso   1.000  B 
  B90      1.0000 0.82050  0.00000  0.24200  Biso   1.000  B 
  B91      1.0000 0.88860  0.00000  0.21490  Biso   1.000  B 
  B92      1.0000 0.76930  0.00000  0.23070  Biso   1.000  B 
  B93      1.0000 0.73070  0.00000  0.26930  Biso   1.000  B 
  B94      1.0000 0.72490  0.00000  0.16950  Biso   1.000  B 
  B95      1.0000 0.67950  0.00000  0.25800  Biso   1.000  B 
  B96      1.0000 0.83050  0.00000  0.27510  Biso   1.000  B 
  B97      1.0000 0.74200  0.00000  0.32050  Biso   1.000  B 
  B98      1.0000 0.64470  0.00000  0.29420  Biso   1.000  B 
  B99      1.0000 0.66950  0.00000  0.22490  Biso   1.000  B 
  B100     1.0000 0.70580  0.00000  0.35530  Biso   1.000  B 
  B101     1.0000 0.77510  0.00000  0.33050  Biso   1.000  B 
  B102     1.0000 0.65650  0.00000  0.34350  Biso   1.000  B 
  B103     1.0000 0.61720  0.00000  0.38280  Biso   1.000  B 
  O2       1.0000 0.59339  0.98950  0.27690  Biso   1.000  O 
  B104     1.0000 0.71490  0.00000  0.38860  Biso   1.000  B 
  B105     1.0000 0.57190  0.00000  0.36740  Biso   1.000  B 
  B106     1.0000 0.63260  0.00000  0.42810  Biso   1.000  B 
  C4       1.0000 0.59307  0.93896  0.25913  Biso   1.000  C 
  C5       1.0000 0.57069  0.93657  0.20809  Biso   1.000  C 
  H8       1.0000 0.57055  0.91739  0.28463  Biso   1.000  H 
  H9       1.0000 0.62942  0.91883  0.25817  Biso   1.000  H 
  H10      1.0000 0.56641  0.89648  0.20081  Biso   1.000  H 
  C6       1.0000 0.60154  0.95775  0.16503  Biso   1.000  C 
  H11      1.0000 0.53293  0.95445  0.20945  Biso   1.000  H 
  H12      1.0000 0.60920  0.99797  0.16808  Biso   1.000  H 
  H13      1.0000 0.58226  0.94949  0.12895  Biso   1.000  H 
  H14      1.0000 0.63767  0.93711  0.16572  Biso   1.000  H 
  B107     1.0000 0.86740  0.00000  0.92810  Biso   1.000  B 
  B108     1.0000 0.88280  0.00000  0.88280  Biso   1.000  B 
  B109     1.0000 0.92810  0.00000  0.86740  Biso   1.000  B 
  B110     1.0000 0.84350  0.00000  0.84350  Biso   1.000  B 
  B111     1.0000 0.79420  0.00000  0.85530  Biso   1.000  B 
  B112     1.0000 0.85530  0.00000  0.79420  Biso   1.000  B 
  B113     1.0000 0.75800  0.00000  0.82050  Biso   1.000  B 
  B114     1.0000 0.78510  0.00000  0.88860  Biso   1.000  B 
  B115     1.0000 0.82050  0.00000  0.75800  Biso   1.000  B 
  B116     1.0000 0.88860  0.00000  0.78510  Biso   1.000  B 
  B117     1.0000 0.76930  0.00000  0.76930  Biso   1.000  B 
  B118     1.0000 0.73070  0.00000  0.73070  Biso   1.000  B 
  B119     1.0000 0.72490  0.00000  0.83050  Biso   1.000  B 
  B120     1.0000 0.67950  0.00000  0.74200  Biso   1.000  B 
  B121     1.0000 0.83050  0.00000  0.72490  Biso   1.000  B 
  B122     1.0000 0.74200  0.00000  0.67950  Biso   1.000  B 
  B123     1.0000 0.64470  0.00000  0.70580  Biso   1.000  B 
  B124     1.0000 0.66950  0.00000  0.77510  Biso   1.000  B 
  B125     1.0000 0.70580  0.00000  0.64470  Biso   1.000  B 
  B126     1.0000 0.77510  0.00000  0.66950  Biso   1.000  B 
  B127     1.0000 0.65650  0.00000  0.65650  Biso   1.000  B 
  B128     1.0000 0.61720  0.00000  0.61720  Biso   1.000  B 
  O3       1.0000 0.59339  0.01050  0.72310  Biso   1.000  O 
  B129     1.0000 0.71490  0.00000  0.61140  Biso   1.000  B 
  B130     1.0000 0.57190  0.00000  0.63260  Biso   1.000  B 
  B131     1.0000 0.63260  0.00000  0.57190  Biso   1.000  B 
  C7       1.0000 0.59307  0.06104  0.74087  Biso   1.000  C 
  C8       1.0000 0.57069  0.06343  0.79191  Biso   1.000  C 
  H15      1.0000 0.57055  0.08261  0.71537  Biso   1.000  H 
  H16      1.0000 0.62942  0.08117  0.74184  Biso   1.000  H 
  H17      1.0000 0.56641  0.10352  0.79919  Biso   1.000  H 
  C9       1.0000 0.60154  0.04225  0.83497  Biso   1.000  C 
  H18      1.0000 0.53293  0.04555  0.79055  Biso   1.000  H 
  H19      1.0000 0.60920  0.00203  0.83192  Biso   1.000  H 
  H20      1.0000 0.58226  0.05050  0.87105  Biso   1.000  H 
  H21      1.0000 0.63767  0.06289  0.83428  Biso   1.000  H 
  B132     1.0000 0.13260  0.00000  0.92810  Biso   1.000  B 
  B133     1.0000 0.11720  0.00000  0.88280  Biso   1.000  B 
  B134     1.0000 0.07190  0.00000  0.86740  Biso   1.000  B 
  B135     1.0000 0.15650  0.00000  0.84350  Biso   1.000  B 
  B136     1.0000 0.20580  0.00000  0.85530  Biso   1.000  B 
  B137     1.0000 0.14470  0.00000  0.79420  Biso   1.000  B 
  B138     1.0000 0.24200  0.00000  0.82050  Biso   1.000  B 
  B139     1.0000 0.21490  0.00000  0.88860  Biso   1.000  B 
  B140     1.0000 0.17950  0.00000  0.75800  Biso   1.000  B 
  B141     1.0000 0.11140  0.00000  0.78510  Biso   1.000  B 
  B142     1.0000 0.23070  0.00000  0.76930  Biso   1.000  B 
  B143     1.0000 0.26930  0.00000  0.73070  Biso   1.000  B 
  B144     1.0000 0.27510  0.00000  0.83050  Biso   1.000  B 
  B145     1.0000 0.32050  0.00000  0.74200  Biso   1.000  B 
  B146     1.0000 0.16950  0.00000  0.72490  Biso   1.000  B 
  B147     1.0000 0.25800  0.00000  0.67950  Biso   1.000  B 
  B148     1.0000 0.35530  0.00000  0.70580  Biso   1.000  B 
  B149     1.0000 0.33050  0.00000  0.77510  Biso   1.000  B 
  B150     1.0000 0.29420  0.00000  0.64470  Biso   1.000  B 
  B151     1.0000 0.22490  0.00000  0.66950  Biso   1.000  B 
  B152     1.0000 0.34350  0.00000  0.65650  Biso   1.000  B 
  B153     1.0000 0.38280  0.00000  0.61720  Biso   1.000  B 
  O4       1.0000 0.40661  0.98950  0.72310  Biso   1.000  O 
  B154     1.0000 0.28510  0.00000  0.61140  Biso   1.000  B 
  B155     1.0000 0.42810  0.00000  0.63260  Biso   1.000  B 
  B156     1.0000 0.36740  0.00000  0.57190  Biso   1.000  B 
  C10      1.0000 0.40693  0.93896  0.74087  Biso   1.000  C 
  C11      1.0000 0.42931  0.93657  0.79191  Biso   1.000  C 
  H22      1.0000 0.42945  0.91739  0.71537  Biso   1.000  H 
  H23      1.0000 0.37058  0.91883  0.74184  Biso   1.000  H 
  H24      1.0000 0.43359  0.89648  0.79919  Biso   1.000  H 
  C12      1.0000 0.39846  0.95775  0.83497  Biso   1.000  C 
  H25      1.0000 0.46707  0.95445  0.79055  Biso   1.000  H 
  H26      1.0000 0.39080  0.99797  0.83192  Biso   1.000  H 
  H27      1.0000 0.41774  0.94949  0.87105  Biso   1.000  H 
  H28      1.0000 0.36233  0.93711  0.83428  Biso   1.000  H 
  B157     1.0000 0.07190  0.13260  0.00000  Biso   1.000  B 
  B158     1.0000 0.11720  0.11720  0.00000  Biso   1.000  B 
  B159     1.0000 0.13260  0.07190  0.00000  Biso   1.000  B 
  B160     1.0000 0.15650  0.15650  0.00000  Biso   1.000  B 
  B161     1.0000 0.14470  0.20580  0.00000  Biso   1.000  B 
  B162     1.0000 0.20580  0.14470  0.00000  Biso   1.000  B 
  B163     1.0000 0.17950  0.24200  0.00000  Biso   1.000  B 
  B164     1.0000 0.11140  0.21490  0.00000  Biso   1.000  B 
  B165     1.0000 0.24200  0.17950  0.00000  Biso   1.000  B 
  B166     1.0000 0.21490  0.11140  0.00000  Biso   1.000  B 
  B167     1.0000 0.23070  0.23070  0.00000  Biso   1.000  B 
  B168     1.0000 0.26930  0.26930  0.00000  Biso   1.000  B 
  B169     1.0000 0.16950  0.27510  0.00000  Biso   1.000  B 
  B170     1.0000 0.25800  0.32050  0.00000  Biso   1.000  B 
  B171     1.0000 0.27510  0.16950  0.00000  Biso   1.000  B 
  B172     1.0000 0.32050  0.25800  0.00000  Biso   1.000  B 
  B173     1.0000 0.29420  0.35530  0.00000  Biso   1.000  B 
  B174     1.0000 0.22490  0.33050  0.00000  Biso   1.000  B 
  B175     1.0000 0.35530  0.29420  0.00000  Biso   1.000  B 
  B176     1.0000 0.33050  0.22490  0.00000  Biso   1.000  B 
  B177     1.0000 0.34350  0.34350  0.00000  Biso   1.000  B 
  B178     1.0000 0.38280  0.38280  0.00000  Biso   1.000  B 
  O5       1.0000 0.27957  0.40872  0.99969  Biso   1.000  O 
  B179     1.0000 0.38860  0.28510  0.00000  Biso   1.000  B 
  B180     1.0000 0.36740  0.42810  0.00000  Biso   1.000  B 
  B181     1.0000 0.42810  0.36740  0.00000  Biso   1.000  B 
  C13      1.0000 0.24463  0.41824  0.03775  Biso   1.000  C 
  C14      1.0000 0.19092  0.42523  0.01839  Biso   1.000  C 
  H29      1.0000 0.25407  0.45306  0.05647  Biso   1.000  H 
  H30      1.0000 0.24422  0.38853  0.06736  Biso   1.000  H 
  H31      1.0000 0.18706  0.46153  0.00016  Biso   1.000  H 
  C15      1.0000 0.15458  0.42135  0.06041  Biso   1.000  C 
  H32      1.0000 0.17862  0.39629  0.99179  Biso   1.000  H 
  H33      1.0000 0.17024  0.43914  0.09417  Biso   1.000  H 
  H34      1.0000 0.14745  0.38104  0.06750  Biso   1.000  H 
  H35      1.0000 0.11797  0.44005  0.05306  Biso   1.000  H 
  B182     1.0000 0.07190  0.86740  0.00000  Biso   1.000  B 
  B183     1.0000 0.11720  0.88280  0.00000  Biso   1.000  B 
  B184     1.0000 0.13260  0.92810  0.00000  Biso   1.000  B 
  B185     1.0000 0.15650  0.84350  0.00000  Biso   1.000  B 
  B186     1.0000 0.14470  0.79420  0.00000  Biso   1.000  B 
  B187     1.0000 0.20580  0.85530  0.00000  Biso   1.000  B 
  B188     1.0000 0.17950  0.75800  0.00000  Biso   1.000  B 
  B189     1.0000 0.11140  0.78510  0.00000  Biso   1.000  B 
  B190     1.0000 0.24200  0.82050  0.00000  Biso   1.000  B 
  B191     1.0000 0.21490  0.88860  0.00000  Biso   1.000  B 
  B192     1.0000 0.23070  0.76930  0.00000  Biso   1.000  B 
  B193     1.0000 0.26930  0.73070  0.00000  Biso   1.000  B 
  B194     1.0000 0.16950  0.72490  0.00000  Biso   1.000  B 
  B195     1.0000 0.25800  0.67950  0.00000  Biso   1.000  B 
  B196     1.0000 0.27510  0.83050  0.00000  Biso   1.000  B 
  B197     1.0000 0.32050  0.74200  0.00000  Biso   1.000  B 
  B198     1.0000 0.29420  0.64470  0.00000  Biso   1.000  B 
  B199     1.0000 0.22490  0.66950  0.00000  Biso   1.000  B 
  B200     1.0000 0.35530  0.70580  0.00000  Biso   1.000  B 
  B201     1.0000 0.33050  0.77510  0.00000  Biso   1.000  B 
  B202     1.0000 0.34350  0.65650  0.00000  Biso   1.000  B 
  B203     1.0000 0.38280  0.61720  0.00000  Biso   1.000  B 
  O6       1.0000 0.27957  0.59128  0.00031  Biso   1.000  O 
  B204     1.0000 0.38860  0.71490  0.00000  Biso   1.000  B 
  B205     1.0000 0.36740  0.57190  0.00000  Biso   1.000  B 
  B206     1.0000 0.42810  0.63260  0.00000  Biso   1.000  B 
  C16      1.0000 0.24463  0.58176  0.96225  Biso   1.000  C 
  C17      1.0000 0.19092  0.57477  0.98161  Biso   1.000  C 
  H36      1.0000 0.25407  0.54694  0.94353  Biso   1.000  H 
  H37      1.0000 0.24422  0.61147  0.93264  Biso   1.000  H 
  H38      1.0000 0.18706  0.53847  0.99984  Biso   1.000  H 
  C18      1.0000 0.15458  0.57865  0.93959  Biso   1.000  C 
  H39      1.0000 0.17862  0.60371  0.00821  Biso   1.000  H 
  H40      1.0000 0.17024  0.56086  0.90583  Biso   1.000  H 
  H41      1.0000 0.14745  0.61896  0.93250  Biso   1.000  H 
  H42      1.0000 0.11797  0.55995  0.94694  Biso   1.000  H 
  B207     1.0000 0.92810  0.86740  0.00000  Biso   1.000  B 
  B208     1.0000 0.88280  0.88280  0.00000  Biso   1.000  B 
  B209     1.0000 0.86740  0.92810  0.00000  Biso   1.000  B 
  B210     1.0000 0.84350  0.84350  0.00000  Biso   1.000  B 
  B211     1.0000 0.85530  0.79420  0.00000  Biso   1.000  B 
  B212     1.0000 0.79420  0.85530  0.00000  Biso   1.000  B 
  B213     1.0000 0.82050  0.75800  0.00000  Biso   1.000  B 
  B214     1.0000 0.88860  0.78510  0.00000  Biso   1.000  B 
  B215     1.0000 0.75800  0.82050  0.00000  Biso   1.000  B 
  B216     1.0000 0.78510  0.88860  0.00000  Biso   1.000  B 
  B217     1.0000 0.76930  0.76930  0.00000  Biso   1.000  B 
  B218     1.0000 0.73070  0.73070  0.00000  Biso   1.000  B 
  B219     1.0000 0.83050  0.72490  0.00000  Biso   1.000  B 
  B220     1.0000 0.74200  0.67950  0.00000  Biso   1.000  B 
  B221     1.0000 0.72490  0.83050  0.00000  Biso   1.000  B 
  B222     1.0000 0.67950  0.74200  0.00000  Biso   1.000  B 
  B223     1.0000 0.70580  0.64470  0.00000  Biso   1.000  B 
  B224     1.0000 0.77510  0.66950  0.00000  Biso   1.000  B 
  B225     1.0000 0.64470  0.70580  0.00000  Biso   1.000  B 
  B226     1.0000 0.66950  0.77510  0.00000  Biso   1.000  B 
  B227     1.0000 0.65650  0.65650  0.00000  Biso   1.000  B 
  B228     1.0000 0.61720  0.61720  0.00000  Biso   1.000  B 
  O7       1.0000 0.72043  0.59128  0.99969  Biso   1.000  O 
  B229     1.0000 0.61140  0.71490  0.00000  Biso   1.000  B 
  B230     1.0000 0.63260  0.57190  0.00000  Biso   1.000  B 
  B231     1.0000 0.57190  0.63260  0.00000  Biso   1.000  B 
  C19      1.0000 0.75537  0.58176  0.03775  Biso   1.000  C 
  C20      1.0000 0.80908  0.57477  0.01839  Biso   1.000  C 
  H43      1.0000 0.74593  0.54694  0.05647  Biso   1.000  H 
  H44      1.0000 0.75578  0.61147  0.06736  Biso   1.000  H 
  H45      1.0000 0.81294  0.53847  0.00016  Biso   1.000  H 
  C21      1.0000 0.84542  0.57865  0.06041  Biso   1.000  C 
  H46      1.0000 0.82138  0.60371  0.99179  Biso   1.000  H 
  H47      1.0000 0.82976  0.56086  0.09417  Biso   1.000  H 
  H48      1.0000 0.85255  0.61896  0.06750  Biso   1.000  H 
  H49      1.0000 0.88203  0.55995  0.05306  Biso   1.000  H 
  B232     1.0000 0.92810  0.13260  0.00000  Biso   1.000  B 
  B233     1.0000 0.88280  0.11720  0.00000  Biso   1.000  B 
  B234     1.0000 0.86740  0.07190  0.00000  Biso   1.000  B 
  B235     1.0000 0.84350  0.15650  0.00000  Biso   1.000  B 
  B236     1.0000 0.85530  0.20580  0.00000  Biso   1.000  B 
  B237     1.0000 0.79420  0.14470  0.00000  Biso   1.000  B 
  B238     1.0000 0.82050  0.24200  0.00000  Biso   1.000  B 
  B239     1.0000 0.88860  0.21490  0.00000  Biso   1.000  B 
  B240     1.0000 0.75800  0.17950  0.00000  Biso   1.000  B 
  B241     1.0000 0.78510  0.11140  0.00000  Biso   1.000  B 
  B242     1.0000 0.76930  0.23070  0.00000  Biso   1.000  B 
  B243     1.0000 0.73070  0.26930  0.00000  Biso   1.000  B 
  B244     1.0000 0.83050  0.27510  0.00000  Biso   1.000  B 
  B245     1.0000 0.74200  0.32050  0.00000  Biso   1.000  B 
  B246     1.0000 0.72490  0.16950  0.00000  Biso   1.000  B 
  B247     1.0000 0.67950  0.25800  0.00000  Biso   1.000  B 
  B248     1.0000 0.70580  0.35530  0.00000  Biso   1.000  B 
  B249     1.0000 0.77510  0.33050  0.00000  Biso   1.000  B 
  B250     1.0000 0.64470  0.29420  0.00000  Biso   1.000  B 
  B251     1.0000 0.66950  0.22490  0.00000  Biso   1.000  B 
  B252     1.0000 0.65650  0.34350  0.00000  Biso   1.000  B 
  B253     1.0000 0.61720  0.38280  0.00000  Biso   1.000  B 
  O8       1.0000 0.72043  0.40872  0.00031  Biso   1.000  O 
  B254     1.0000 0.61140  0.28510  0.00000  Biso   1.000  B 
  B255     1.0000 0.63260  0.42810  0.00000  Biso   1.000  B 
  B256     1.0000 0.57190  0.36740  0.00000  Biso   1.000  B 
  C22      1.0000 0.75537  0.41824  0.96225  Biso   1.000  C 
  C23      1.0000 0.80908  0.42523  0.98161  Biso   1.000  C 
  H50      1.0000 0.74593  0.45306  0.94353  Biso   1.000  H 
  H51      1.0000 0.75578  0.38853  0.93264  Biso   1.000  H 
  H52      1.0000 0.81294  0.46153  0.99984  Biso   1.000  H 
  C24      1.0000 0.84542  0.42135  0.93959  Biso   1.000  C 
  H53      1.0000 0.82138  0.39629  0.00821  Biso   1.000  H 
  H54      1.0000 0.82976  0.43914  0.90583  Biso   1.000  H 
  H55      1.0000 0.85255  0.38104  0.93250  Biso   1.000  H 
  H56      1.0000 0.88203  0.44005  0.94694  Biso   1.000  H 
  B257     1.0000 0.00000  0.07190  0.13260  Biso   1.000  B 
  B258     1.0000 0.00000  0.11720  0.11720  Biso   1.000  B 
  B259     1.0000 0.00000  0.13260  0.07190  Biso   1.000  B 
  B260     1.0000 0.00000  0.15650  0.15650  Biso   1.000  B 
  B261     1.0000 0.00000  0.14470  0.20580  Biso   1.000  B 
  B262     1.0000 0.00000  0.20580  0.14470  Biso   1.000  B 
  B263     1.0000 0.00000  0.17950  0.24200  Biso   1.000  B 
  B264     1.0000 0.00000  0.11140  0.21490  Biso   1.000  B 
  B265     1.0000 0.00000  0.24200  0.17950  Biso   1.000  B 
  B266     1.0000 0.00000  0.21490  0.11140  Biso   1.000  B 
  B267     1.0000 0.00000  0.23070  0.23070  Biso   1.000  B 
  B268     1.0000 0.00000  0.26930  0.26930  Biso   1.000  B 
  B269     1.0000 0.00000  0.16950  0.27510  Biso   1.000  B 
  B270     1.0000 0.00000  0.25800  0.32050  Biso   1.000  B 
  B271     1.0000 0.00000  0.27510  0.16950  Biso   1.000  B 
  B272     1.0000 0.00000  0.32050  0.25800  Biso   1.000  B 
  B273     1.0000 0.00000  0.29420  0.35530  Biso   1.000  B 
  B274     1.0000 0.00000  0.22490  0.33050  Biso   1.000  B 
  B275     1.0000 0.00000  0.35530  0.29420  Biso   1.000  B 
  B276     1.0000 0.00000  0.33050  0.22490  Biso   1.000  B 
  B277     1.0000 0.00000  0.34350  0.34350  Biso   1.000  B 
  B278     1.0000 0.00000  0.38280  0.38280  Biso   1.000  B 
  O9       1.0000 0.99527  0.27821  0.40747  Biso   1.000  O 
  B279     1.0000 0.00000  0.38860  0.28510  Biso   1.000  B 
  B280     1.0000 0.00000  0.36740  0.42810  Biso   1.000  B 
  B281     1.0000 0.00000  0.42810  0.36740  Biso   1.000  B 
  C25      1.0000 0.03764  0.24968  0.42215  Biso   1.000  C 
  C26      1.0000 0.02891  0.19353  0.41196  Biso   1.000  C 
  H57      1.0000 0.04177  0.25466  0.46277  Biso   1.000  H 
  H58      1.0000 0.07356  0.26055  0.40543  Biso   1.000  H 
  H59      1.0000 0.03770  0.17328  0.44690  Biso   1.000  H 
  C27      1.0000 0.06005  0.16798  0.37115  Biso   1.000  C 
  H60      1.0000 0.98827  0.18678  0.40440  Biso   1.000  H 
  H61      1.0000 0.09541  0.15350  0.38702  Biso   1.000  H 
  H62      1.0000 0.06755  0.19073  0.33754  Biso   1.000  H 
  H63      1.0000 0.03700  0.13577  0.35881  Biso   1.000  H 
  B282     1.0000 0.00000  0.07190  0.86740  Biso   1.000  B 
  B283     1.0000 0.00000  0.11720  0.88280  Biso   1.000  B 
  B284     1.0000 0.00000  0.13260  0.92810  Biso   1.000  B 
  B285     1.0000 0.00000  0.15650  0.84350  Biso   1.000  B 
  B286     1.0000 0.00000  0.14470  0.79420  Biso   1.000  B 
  B287     1.0000 0.00000  0.20580  0.85530  Biso   1.000  B 
  B288     1.0000 0.00000  0.17950  0.75800  Biso   1.000  B 
  B289     1.0000 0.00000  0.11140  0.78510  Biso   1.000  B 
  B290     1.0000 0.00000  0.24200  0.82050  Biso   1.000  B 
  B291     1.0000 0.00000  0.21490  0.88860  Biso   1.000  B 
  B292     1.0000 0.00000  0.23070  0.76930  Biso   1.000  B 
  B293     1.0000 0.00000  0.26930  0.73070  Biso   1.000  B 
  B294     1.0000 0.00000  0.16950  0.72490  Biso   1.000  B 
  B295     1.0000 0.00000  0.25800  0.67950  Biso   1.000  B 
  B296     1.0000 0.00000  0.27510  0.83050  Biso   1.000  B 
  B297     1.0000 0.00000  0.32050  0.74200  Biso   1.000  B 
  B298     1.0000 0.00000  0.29420  0.64470  Biso   1.000  B 
  B299     1.0000 0.00000  0.22490  0.66950  Biso   1.000  B 
  B300     1.0000 0.00000  0.35530  0.70580  Biso   1.000  B 
  B301     1.0000 0.00000  0.33050  0.77510  Biso   1.000  B 
  B302     1.0000 0.00000  0.34350  0.65650  Biso   1.000  B 
  B303     1.0000 0.00000  0.38280  0.61720  Biso   1.000  B 
  O10      1.0000 0.00473  0.27821  0.59253  Biso   1.000  O 
  B304     1.0000 0.00000  0.38860  0.71490  Biso   1.000  B 
  B305     1.0000 0.00000  0.36740  0.57190  Biso   1.000  B 
  B306     1.0000 0.00000  0.42810  0.63260  Biso   1.000  B 
  C28      1.0000 0.96236  0.24968  0.57785  Biso   1.000  C 
  C29      1.0000 0.97109  0.19353  0.58804  Biso   1.000  C 
  H64      1.0000 0.95822  0.25466  0.53723  Biso   1.000  H 
  H65      1.0000 0.92644  0.26055  0.59457  Biso   1.000  H 
  H66      1.0000 0.96230  0.17328  0.55310  Biso   1.000  H 
  C30      1.0000 0.93995  0.16798  0.62884  Biso   1.000  C 
  H67      1.0000 0.01172  0.18678  0.59560  Biso   1.000  H 
  H68      1.0000 0.90460  0.15350  0.61298  Biso   1.000  H 
  H69      1.0000 0.93245  0.19073  0.66246  Biso   1.000  H 
  H70      1.0000 0.96300  0.13577  0.64118  Biso   1.000  H 
  B307     1.0000 0.00000  0.92810  0.86740  Biso   1.000  B 
  B308     1.0000 0.00000  0.88280  0.88280  Biso   1.000  B 
  B309     1.0000 0.00000  0.86740  0.92810  Biso   1.000  B 
  B310     1.0000 0.00000  0.84350  0.84350  Biso   1.000  B 
  B311     1.0000 0.00000  0.85530  0.79420  Biso   1.000  B 
  B312     1.0000 0.00000  0.79420  0.85530  Biso   1.000  B 
  B313     1.0000 0.00000  0.82050  0.75800  Biso   1.000  B 
  B314     1.0000 0.00000  0.88860  0.78510  Biso   1.000  B 
  B315     1.0000 0.00000  0.75800  0.82050  Biso   1.000  B 
  B316     1.0000 0.00000  0.78510  0.88860  Biso   1.000  B 
  B317     1.0000 0.00000  0.76930  0.76930  Biso   1.000  B 
  B318     1.0000 0.00000  0.73070  0.73070  Biso   1.000  B 
  B319     1.0000 0.00000  0.83050  0.72490  Biso   1.000  B 
  B320     1.0000 0.00000  0.74200  0.67950  Biso   1.000  B 
  B321     1.0000 0.00000  0.72490  0.83050  Biso   1.000  B 
  B322     1.0000 0.00000  0.67950  0.74200  Biso   1.000  B 
  B323     1.0000 0.00000  0.70580  0.64470  Biso   1.000  B 
  B324     1.0000 0.00000  0.77510  0.66950  Biso   1.000  B 
  B325     1.0000 0.00000  0.64470  0.70580  Biso   1.000  B 
  B326     1.0000 0.00000  0.66950  0.77510  Biso   1.000  B 
  B327     1.0000 0.00000  0.65650  0.65650  Biso   1.000  B 
  B328     1.0000 0.00000  0.61720  0.61720  Biso   1.000  B 
  O11      1.0000 0.99527  0.72178  0.59253  Biso   1.000  O 
  B329     1.0000 0.00000  0.61140  0.71490  Biso   1.000  B 
  B330     1.0000 0.00000  0.63260  0.57190  Biso   1.000  B 
  B331     1.0000 0.00000  0.57190  0.63260  Biso   1.000  B 
  C31      1.0000 0.03764  0.75032  0.57785  Biso   1.000  C 
  C32      1.0000 0.02891  0.80647  0.58804  Biso   1.000  C 
  H71      1.0000 0.04177  0.74534  0.53723  Biso   1.000  H 
  H72      1.0000 0.07356  0.73945  0.59457  Biso   1.000  H 
  H73      1.0000 0.03770  0.82672  0.55310  Biso   1.000  H 
  C33      1.0000 0.06005  0.83202  0.62884  Biso   1.000  C 
  H74      1.0000 0.98827  0.81322  0.59560  Biso   1.000  H 
  H75      1.0000 0.09541  0.84650  0.61298  Biso   1.000  H 
  H76      1.0000 0.06755  0.80927  0.66246  Biso   1.000  H 
  H77      1.0000 0.03700  0.86423  0.64118  Biso   1.000  H 
  B332     1.0000 0.00000  0.92810  0.13260  Biso   1.000  B 
  B333     1.0000 0.00000  0.88280  0.11720  Biso   1.000  B 
  B334     1.0000 0.00000  0.86740  0.07190  Biso   1.000  B 
  B335     1.0000 0.00000  0.84350  0.15650  Biso   1.000  B 
  B336     1.0000 0.00000  0.85530  0.20580  Biso   1.000  B 
  B337     1.0000 0.00000  0.79420  0.14470  Biso   1.000  B 
  B338     1.0000 0.00000  0.82050  0.24200  Biso   1.000  B 
  B339     1.0000 0.00000  0.88860  0.21490  Biso   1.000  B 
  B340     1.0000 0.00000  0.75800  0.17950  Biso   1.000  B 
  B341     1.0000 0.00000  0.78510  0.11140  Biso   1.000  B 
  B342     1.0000 0.00000  0.76930  0.23070  Biso   1.000  B 
  B343     1.0000 0.00000  0.73070  0.26930  Biso   1.000  B 
  B344     1.0000 0.00000  0.83050  0.27510  Biso   1.000  B 
  B345     1.0000 0.00000  0.74200  0.32050  Biso   1.000  B 
  B346     1.0000 0.00000  0.72490  0.16950  Biso   1.000  B 
  B347     1.0000 0.00000  0.67950  0.25800  Biso   1.000  B 
  B348     1.0000 0.00000  0.70580  0.35530  Biso   1.000  B 
  B349     1.0000 0.00000  0.77510  0.33050  Biso   1.000  B 
  B350     1.0000 0.00000  0.64470  0.29420  Biso   1.000  B 
  B351     1.0000 0.00000  0.66950  0.22490  Biso   1.000  B 
  B352     1.0000 0.00000  0.65650  0.34350  Biso   1.000  B 
  B353     1.0000 0.00000  0.61720  0.38280  Biso   1.000  B 
  O12      1.0000 0.00473  0.72178  0.40747  Biso   1.000  O 
  B354     1.0000 0.00000  0.61140  0.28510  Biso   1.000  B 
  B355     1.0000 0.00000  0.63260  0.42810  Biso   1.000  B 
  B356     1.0000 0.00000  0.57190  0.36740  Biso   1.000  B 
  C34      1.0000 0.96236  0.75032  0.42215  Biso   1.000  C 
  C35      1.0000 0.97109  0.80647  0.41196  Biso   1.000  C 
  H78      1.0000 0.95822  0.74534  0.46277  Biso   1.000  H 
  H79      1.0000 0.92644  0.73945  0.40543  Biso   1.000  H 
  H80      1.0000 0.96230  0.82672  0.44690  Biso   1.000  H 
  C36      1.0000 0.93995  0.83202  0.37115  Biso   1.000  C 
  H81      1.0000 0.01172  0.81322  0.40440  Biso   1.000  H 
  H82      1.0000 0.90460  0.84650  0.38702  Biso   1.000  H 
  H83      1.0000 0.93245  0.80927  0.33754  Biso   1.000  H 
  H84      1.0000 0.96300  0.86423  0.35881  Biso   1.000  H 
  B357     1.0000 0.13260  0.50000  0.57190  Biso   1.000  B 
  B358     1.0000 0.11720  0.50000  0.61720  Biso   1.000  B 
  B359     1.0000 0.07190  0.50000  0.63260  Biso   1.000  B 
  B360     1.0000 0.15650  0.50000  0.65650  Biso   1.000  B 
  B361     1.0000 0.20580  0.50000  0.64470  Biso   1.000  B 
  B362     1.0000 0.14470  0.50000  0.70580  Biso   1.000  B 
  B363     1.0000 0.24200  0.50000  0.67950  Biso   1.000  B 
  B364     1.0000 0.21490  0.50000  0.61140  Biso   1.000  B 
  B365     1.0000 0.17950  0.50000  0.74200  Biso   1.000  B 
  B366     1.0000 0.11140  0.50000  0.71490  Biso   1.000  B 
  B367     1.0000 0.23070  0.50000  0.73070  Biso   1.000  B 
  B368     1.0000 0.26930  0.50000  0.76930  Biso   1.000  B 
  B369     1.0000 0.27510  0.50000  0.66950  Biso   1.000  B 
  B370     1.0000 0.32050  0.50000  0.75800  Biso   1.000  B 
  B371     1.0000 0.16950  0.50000  0.77510  Biso   1.000  B 
  B372     1.0000 0.25800  0.50000  0.82050  Biso   1.000  B 
  B373     1.0000 0.35530  0.50000  0.79420  Biso   1.000  B 
  B374     1.0000 0.33050  0.50000  0.72490  Biso   1.000  B 
  B375     1.0000 0.29420  0.50000  0.85530  Biso   1.000  B 
  B376     1.0000 0.22490  0.50000  0.83050  Biso   1.000  B 
  B377     1.0000 0.34350  0.50000  0.84350  Biso   1.000  B 
  B378     1.0000 0.38280  0.50000  0.88280  Biso   1.000  B 
  O13      1.0000 0.40877  0.49972  0.77936  Biso   1.000  O 
  B379     1.0000 0.28510  0.50000  0.88860  Biso   1.000  B 
  B380     1.0000 0.42810  0.50000  0.86740  Biso   1.000  B 
  B381     1.0000 0.36740  0.50000  0.92810  Biso   1.000  B 
  C37      1.0000 0.41770  0.53748  0.74340  Biso   1.000  C 
  C38      1.0000 0.42935  0.51742  0.69015  Biso   1.000  C 
  H85      1.0000 0.45064  0.55856  0.75465  Biso   1.000  H 
  H86      1.0000 0.38668  0.56544  0.73993  Biso   1.000  H 
  H87      1.0000 0.46290  0.49390  0.69003  Biso   1.000  H 
  C39      1.0000 0.43404  0.56021  0.65506  Biso   1.000  C 
  H88      1.0000 0.39865  0.49488  0.67414  Biso   1.000  H 
  H89      1.0000 0.45790  0.58974  0.67113  Biso   1.000  H 
  H90      1.0000 0.39594  0.57508  0.64735  Biso   1.000  H 
  H91      1.0000 0.45149  0.54912  0.61878  Biso   1.000  H 
  B382     1.0000 0.86740  0.50000  0.57190  Biso   1.000  B 
  B383     1.0000 0.88280  0.50000  0.61720  Biso   1.000  B 
  B384     1.0000 0.92810  0.50000  0.63260  Biso   1.000  B 
  B385     1.0000 0.84350  0.50000  0.65650  Biso   1.000  B 
  B386     1.0000 0.79420  0.50000  0.64470  Biso   1.000  B 
  B387     1.0000 0.85530  0.50000  0.70580  Biso   1.000  B 
  B388     1.0000 0.75800  0.50000  0.67950  Biso   1.000  B 
  B389     1.0000 0.78510  0.50000  0.61140  Biso   1.000  B 
  B390     1.0000 0.82050  0.50000  0.74200  Biso   1.000  B 
  B391     1.0000 0.88860  0.50000  0.71490  Biso   1.000  B 
  B392     1.0000 0.76930  0.50000  0.73070  Biso   1.000  B 
  B393     1.0000 0.73070  0.50000  0.76930  Biso   1.000  B 
  B394     1.0000 0.72490  0.50000  0.66950  Biso   1.000  B 
  B395     1.0000 0.67950  0.50000  0.75800  Biso   1.000  B 
  B396     1.0000 0.83050  0.50000  0.77510  Biso   1.000  B 
  B397     1.0000 0.74200  0.50000  0.82050  Biso   1.000  B 
  B398     1.0000 0.64470  0.50000  0.79420  Biso   1.000  B 
  B399     1.0000 0.66950  0.50000  0.72490  Biso   1.000  B 
  B400     1.0000 0.70580  0.50000  0.85530  Biso   1.000  B 
  B401     1.0000 0.77510  0.50000  0.83050  Biso   1.000  B 
  B402     1.0000 0.65650  0.50000  0.84350  Biso   1.000  B 
  B403     1.0000 0.61720  0.50000  0.88280  Biso   1.000  B 
  O14      1.0000 0.59123  0.50028  0.77936  Biso   1.000  O 
  B404     1.0000 0.71490  0.50000  0.88860  Biso   1.000  B 
  B405     1.0000 0.57190  0.50000  0.86740  Biso   1.000  B 
  B406     1.0000 0.63260  0.50000  0.92810  Biso   1.000  B 
  C40      1.0000 0.58230  0.46252  0.74340  Biso   1.000  C 
  C41      1.0000 0.57065  0.48258  0.69015  Biso   1.000  C 
  H92      1.0000 0.54936  0.44144  0.75465  Biso   1.000  H 
  H93      1.0000 0.61332  0.43456  0.73993  Biso   1.000  H 
  H94      1.0000 0.53710  0.50610  0.69003  Biso   1.000  H 
  C42      1.0000 0.56596  0.43979  0.65506  Biso   1.000  C 
  H95      1.0000 0.60135  0.50512  0.67414  Biso   1.000  H 
  H96      1.0000 0.54210  0.41026  0.67113  Biso   1.000  H 
  H97      1.0000 0.60406  0.42492  0.64735  Biso   1.000  H 
  H98      1.0000 0.54851  0.45088  0.61878  Biso   1.000  H 
  B407     1.0000 0.86740  0.50000  0.42810  Biso   1.000  B 
  B408     1.0000 0.88280  0.50000  0.38280  Biso   1.000  B 
  B409     1.0000 0.92810  0.50000  0.36740  Biso   1.000  B 
  B410     1.0000 0.84350  0.50000  0.34350  Biso   1.000  B 
  B411     1.0000 0.79420  0.50000  0.35530  Biso   1.000  B 
  B412     1.0000 0.85530  0.50000  0.29420  Biso   1.000  B 
  B413     1.0000 0.75800  0.50000  0.32050  Biso   1.000  B 
  B414     1.0000 0.78510  0.50000  0.38860  Biso   1.000  B 
  B415     1.0000 0.82050  0.50000  0.25800  Biso   1.000  B 
  B416     1.0000 0.88860  0.50000  0.28510  Biso   1.000  B 
  B417     1.0000 0.76930  0.50000  0.26930  Biso   1.000  B 
  B418     1.0000 0.73070  0.50000  0.23070  Biso   1.000  B 
  B419     1.0000 0.72490  0.50000  0.33050  Biso   1.000  B 
  B420     1.0000 0.67950  0.50000  0.24200  Biso   1.000  B 
  B421     1.0000 0.83050  0.50000  0.22490  Biso   1.000  B 
  B422     1.0000 0.74200  0.50000  0.17950  Biso   1.000  B 
  B423     1.0000 0.64470  0.50000  0.20580  Biso   1.000  B 
  B424     1.0000 0.66950  0.50000  0.27510  Biso   1.000  B 
  B425     1.0000 0.70580  0.50000  0.14470  Biso   1.000  B 
  B426     1.0000 0.77510  0.50000  0.16950  Biso   1.000  B 
  B427     1.0000 0.65650  0.50000  0.15650  Biso   1.000  B 
  B428     1.0000 0.61720  0.50000  0.11720  Biso   1.000  B 
  O15      1.0000 0.59123  0.49972  0.22064  Biso   1.000  O 
  B429     1.0000 0.71490  0.50000  0.11140  Biso   1.000  B 
  B430     1.0000 0.57190  0.50000  0.13260  Biso   1.000  B 
  B431     1.0000 0.63260  0.50000  0.07190  Biso   1.000  B 
  C43      1.0000 0.58230  0.53748  0.25660  Biso   1.000  C 
  C44      1.0000 0.57065  0.51742  0.30985  Biso   1.000  C 
  H99      1.0000 0.54936  0.55856  0.24535  Biso   1.000  H 
  H100     1.0000 0.61332  0.56544  0.26007  Biso   1.000  H 
  H101     1.0000 0.53710  0.49390  0.30997  Biso   1.000  H 
  C45      1.0000 0.56596  0.56021  0.34493  Biso   1.000  C 
  H102     1.0000 0.60135  0.49488  0.32586  Biso   1.000  H 
  H103     1.0000 0.54210  0.58974  0.32887  Biso   1.000  H 
  H104     1.0000 0.60406  0.57508  0.35265  Biso   1.000  H 
  H105     1.0000 0.54851  0.54912  0.38122  Biso   1.000  H 
  B432     1.0000 0.13260  0.50000  0.42810  Biso   1.000  B 
  B433     1.0000 0.11720  0.50000  0.38280  Biso   1.000  B 
  B434     1.0000 0.07190  0.50000  0.36740  Biso   1.000  B 
  B435     1.0000 0.15650  0.50000  0.34350  Biso   1.000  B 
  B436     1.0000 0.20580  0.50000  0.35530  Biso   1.000  B 
  B437     1.0000 0.14470  0.50000  0.29420  Biso   1.000  B 
  B438     1.0000 0.24200  0.50000  0.32050  Biso   1.000  B 
  B439     1.0000 0.21490  0.50000  0.38860  Biso   1.000  B 
  B440     1.0000 0.17950  0.50000  0.25800  Biso   1.000  B 
  B441     1.0000 0.11140  0.50000  0.28510  Biso   1.000  B 
  B442     1.0000 0.23070  0.50000  0.26930  Biso   1.000  B 
  B443     1.0000 0.26930  0.50000  0.23070  Biso   1.000  B 
  B444     1.0000 0.27510  0.50000  0.33050  Biso   1.000  B 
  B445     1.0000 0.32050  0.50000  0.24200  Biso   1.000  B 
  B446     1.0000 0.16950  0.50000  0.22490  Biso   1.000  B 
  B447     1.0000 0.25800  0.50000  0.17950  Biso   1.000  B 
  B448     1.0000 0.35530  0.50000  0.20580  Biso   1.000  B 
  B449     1.0000 0.33050  0.50000  0.27510  Biso   1.000  B 
  B450     1.0000 0.29420  0.50000  0.14470  Biso   1.000  B 
  B451     1.0000 0.22490  0.50000  0.16950  Biso   1.000  B 
  B452     1.0000 0.34350  0.50000  0.15650  Biso   1.000  B 
  B453     1.0000 0.38280  0.50000  0.11720  Biso   1.000  B 
  O16      1.0000 0.40877  0.50028  0.22064  Biso   1.000  O 
  B454     1.0000 0.28510  0.50000  0.11140  Biso   1.000  B 
  B455     1.0000 0.42810  0.50000  0.13260  Biso   1.000  B 
  B456     1.0000 0.36740  0.50000  0.07190  Biso   1.000  B 
  C46      1.0000 0.41770  0.46252  0.25660  Biso   1.000  C 
  C47      1.0000 0.42935  0.48258  0.30985  Biso   1.000  C 
  H106     1.0000 0.45064  0.44144  0.24535  Biso   1.000  H 
  H107     1.0000 0.38668  0.43456  0.26007  Biso   1.000  H 
  H108     1.0000 0.46290  0.50610  0.30997  Biso   1.000  H 
  C48      1.0000 0.43404  0.43979  0.34493  Biso   1.000  C 
  H109     1.0000 0.39865  0.50512  0.32586  Biso   1.000  H 
  H110     1.0000 0.45790  0.41026  0.32887  Biso   1.000  H 
  H111     1.0000 0.39594  0.42492  0.35265  Biso   1.000  H 
  H112     1.0000 0.45149  0.45088  0.38122  Biso   1.000  H 
  B457     1.0000 0.07190  0.63260  0.50000  Biso   1.000  B 
  B458     1.0000 0.11720  0.61720  0.50000  Biso   1.000  B 
  B459     1.0000 0.13260  0.57190  0.50000  Biso   1.000  B 
  B460     1.0000 0.15650  0.65650  0.50000  Biso   1.000  B 
  B461     1.0000 0.14470  0.70580  0.50000  Biso   1.000  B 
  B462     1.0000 0.20580  0.64470  0.50000  Biso   1.000  B 
  B463     1.0000 0.17950  0.74200  0.50000  Biso   1.000  B 
  B464     1.0000 0.11140  0.71490  0.50000  Biso   1.000  B 
  B465     1.0000 0.24200  0.67950  0.50000  Biso   1.000  B 
  B466     1.0000 0.21490  0.61140  0.50000  Biso   1.000  B 
  B467     1.0000 0.23070  0.73070  0.50000  Biso   1.000  B 
  B468     1.0000 0.26930  0.76930  0.50000  Biso   1.000  B 
  B469     1.0000 0.16950  0.77510  0.50000  Biso   1.000  B 
  B470     1.0000 0.25800  0.82050  0.50000  Biso   1.000  B 
  B471     1.0000 0.27510  0.66950  0.50000  Biso   1.000  B 
  B472     1.0000 0.32050  0.75800  0.50000  Biso   1.000  B 
  B473     1.0000 0.29420  0.85530  0.50000  Biso   1.000  B 
  B474     1.0000 0.22490  0.83050  0.50000  Biso   1.000  B 
  B475     1.0000 0.35530  0.79420  0.50000  Biso   1.000  B 
  B476     1.0000 0.33050  0.72490  0.50000  Biso   1.000  B 
  B477     1.0000 0.34350  0.84350  0.50000  Biso   1.000  B 
  B478     1.0000 0.38280  0.88280  0.50000  Biso   1.000  B 
  O17      1.0000 0.27829  0.90717  0.49439  Biso   1.000  O 
  B479     1.0000 0.38860  0.78510  0.50000  Biso   1.000  B 
  B480     1.0000 0.36740  0.92810  0.50000  Biso   1.000  B 
  B481     1.0000 0.42810  0.86740  0.50000  Biso   1.000  B 
  C49      1.0000 0.24694  0.92122  0.53511  Biso   1.000  C 
  C50      1.0000 0.19165  0.93826  0.52010  Biso   1.000  C 
  H113     1.0000 0.26460  0.95552  0.54931  Biso   1.000  H 
  H114     1.0000 0.24597  0.89443  0.56743  Biso   1.000  H 
  H115     1.0000 0.18214  0.96671  0.54823  Biso   1.000  H 
  C51      1.0000 0.14822  0.90115  0.52365  Biso   1.000  C 
  H116     1.0000 0.19043  0.95607  0.48299  Biso   1.000  H 
  H117     1.0000 0.11233  0.92228  0.52751  Biso   1.000  H 
  H118     1.0000 0.15452  0.87803  0.55710  Biso   1.000  H 
  H119     1.0000 0.14434  0.87714  0.49047  Biso   1.000  H 
  B482     1.0000 0.07190  0.36740  0.50000  Biso   1.000  B 
  B483     1.0000 0.11720  0.38280  0.50000  Biso   1.000  B 
  B484     1.0000 0.13260  0.42810  0.50000  Biso   1.000  B 
  B485     1.0000 0.15650  0.34350  0.50000  Biso   1.000  B 
  B486     1.0000 0.14470  0.29420  0.50000  Biso   1.000  B 
  B487     1.0000 0.20580  0.35530  0.50000  Biso   1.000  B 
  B488     1.0000 0.17950  0.25800  0.50000  Biso   1.000  B 
  B489     1.0000 0.11140  0.28510  0.50000  Biso   1.000  B 
  B490     1.0000 0.24200  0.32050  0.50000  Biso   1.000  B 
  B491     1.0000 0.21490  0.38860  0.50000  Biso   1.000  B 
  B492     1.0000 0.23070  0.26930  0.50000  Biso   1.000  B 
  B493     1.0000 0.26930  0.23070  0.50000  Biso   1.000  B 
  B494     1.0000 0.16950  0.22490  0.50000  Biso   1.000  B 
  B495     1.0000 0.25800  0.17950  0.50000  Biso   1.000  B 
  B496     1.0000 0.27510  0.33050  0.50000  Biso   1.000  B 
  B497     1.0000 0.32050  0.24200  0.50000  Biso   1.000  B 
  B498     1.0000 0.29420  0.14470  0.50000  Biso   1.000  B 
  B499     1.0000 0.22490  0.16950  0.50000  Biso   1.000  B 
  B500     1.0000 0.35530  0.20580  0.50000  Biso   1.000  B 
  B501     1.0000 0.33050  0.27510  0.50000  Biso   1.000  B 
  B502     1.0000 0.34350  0.15650  0.50000  Biso   1.000  B 
  B503     1.0000 0.38280  0.11720  0.50000  Biso   1.000  B 
  O18      1.0000 0.27829  0.09283  0.50561  Biso   1.000  O 
  B504     1.0000 0.38860  0.21490  0.50000  Biso   1.000  B 
  B505     1.0000 0.36740  0.07190  0.50000  Biso   1.000  B 
  B506     1.0000 0.42810  0.13260  0.50000  Biso   1.000  B 
  C52      1.0000 0.24694  0.07879  0.46489  Biso   1.000  C 
  C53      1.0000 0.19165  0.06174  0.47990  Biso   1.000  C 
  H120     1.0000 0.26460  0.04448  0.45069  Biso   1.000  H 
  H121     1.0000 0.24597  0.10558  0.43257  Biso   1.000  H 
  H122     1.0000 0.18214  0.03329  0.45177  Biso   1.000  H 
  C54      1.0000 0.14822  0.09885  0.47635  Biso   1.000  C 
  H123     1.0000 0.19043  0.04393  0.51701  Biso   1.000  H 
  H124     1.0000 0.11233  0.07772  0.47249  Biso   1.000  H 
  H125     1.0000 0.15452  0.12198  0.44290  Biso   1.000  H 
  H126     1.0000 0.14434  0.12286  0.50953  Biso   1.000  H 
  B507     1.0000 0.92810  0.36740  0.50000  Biso   1.000  B 
  B508     1.0000 0.88280  0.38280  0.50000  Biso   1.000  B 
  B509     1.0000 0.86740  0.42810  0.50000  Biso   1.000  B 
  B510     1.0000 0.84350  0.34350  0.50000  Biso   1.000  B 
  B511     1.0000 0.85530  0.29420  0.50000  Biso   1.000  B 
  B512     1.0000 0.79420  0.35530  0.50000  Biso   1.000  B 
  B513     1.0000 0.82050  0.25800  0.50000  Biso   1.000  B 
  B514     1.0000 0.88860  0.28510  0.50000  Biso   1.000  B 
  B515     1.0000 0.75800  0.32050  0.50000  Biso   1.000  B 
  B516     1.0000 0.78510  0.38860  0.50000  Biso   1.000  B 
  B517     1.0000 0.76930  0.26930  0.50000  Biso   1.000  B 
  B518     1.0000 0.73070  0.23070  0.50000  Biso   1.000  B 
  B519     1.0000 0.83050  0.22490  0.50000  Biso   1.000  B 
  B520     1.0000 0.74200  0.17950  0.50000  Biso   1.000  B 
  B521     1.0000 0.72490  0.33050  0.50000  Biso   1.000  B 
  B522     1.0000 0.67950  0.24200  0.50000  Biso   1.000  B 
  B523     1.0000 0.70580  0.14470  0.50000  Biso   1.000  B 
  B524     1.0000 0.77510  0.16950  0.50000  Biso   1.000  B 
  B525     1.0000 0.64470  0.20580  0.50000  Biso   1.000  B 
  B526     1.0000 0.66950  0.27510  0.50000  Biso   1.000  B 
  B527     1.0000 0.65650  0.15650  0.50000  Biso   1.000  B 
  B528     1.0000 0.61720  0.11720  0.50000  Biso   1.000  B 
  O19      1.0000 0.72171  0.09283  0.49439  Biso   1.000  O 
  B529     1.0000 0.61140  0.21490  0.50000  Biso   1.000  B 
  B530     1.0000 0.63260  0.07190  0.50000  Biso   1.000  B 
  B531     1.0000 0.57190  0.13260  0.50000  Biso   1.000  B 
  C55      1.0000 0.75306  0.07879  0.53511  Biso   1.000  C 
  C56      1.0000 0.80835  0.06174  0.52010  Biso   1.000  C 
  H127     1.0000 0.73540  0.04448  0.54931  Biso   1.000  H 
  H128     1.0000 0.75403  0.10558  0.56743  Biso   1.000  H 
  H129     1.0000 0.81786  0.03329  0.54823  Biso   1.000  H 
  C57      1.0000 0.85178  0.09885  0.52365  Biso   1.000  C 
  H130     1.0000 0.80957  0.04393  0.48299  Biso   1.000  H 
  H131     1.0000 0.88767  0.07772  0.52751  Biso   1.000  H 
  H132     1.0000 0.84548  0.12198  0.55710  Biso   1.000  H 
  H133     1.0000 0.85566  0.12286  0.49047  Biso   1.000  H 
  B532     1.0000 0.92810  0.63260  0.50000  Biso   1.000  B 
  B533     1.0000 0.88280  0.61720  0.50000  Biso   1.000  B 
  B534     1.0000 0.86740  0.57190  0.50000  Biso   1.000  B 
  B535     1.0000 0.84350  0.65650  0.50000  Biso   1.000  B 
  B536     1.0000 0.85530  0.70580  0.50000  Biso   1.000  B 
  B537     1.0000 0.79420  0.64470  0.50000  Biso   1.000  B 
  B538     1.0000 0.82050  0.74200  0.50000  Biso   1.000  B 
  B539     1.0000 0.88860  0.71490  0.50000  Biso   1.000  B 
  B540     1.0000 0.75800  0.67950  0.50000  Biso   1.000  B 
  B541     1.0000 0.78510  0.61140  0.50000  Biso   1.000  B 
  B542     1.0000 0.76930  0.73070  0.50000  Biso   1.000  B 
  B543     1.0000 0.73070  0.76930  0.50000  Biso   1.000  B 
  B544     1.0000 0.83050  0.77510  0.50000  Biso   1.000  B 
  B545     1.0000 0.74200  0.82050  0.50000  Biso   1.000  B 
  B546     1.0000 0.72490  0.66950  0.50000  Biso   1.000  B 
  B547     1.0000 0.67950  0.75800  0.50000  Biso   1.000  B 
  B548     1.0000 0.70580  0.85530  0.50000  Biso   1.000  B 
  B549     1.0000 0.77510  0.83050  0.50000  Biso   1.000  B 
  B550     1.0000 0.64470  0.79420  0.50000  Biso   1.000  B 
  B551     1.0000 0.66950  0.72490  0.50000  Biso   1.000  B 
  B552     1.0000 0.65650  0.84350  0.50000  Biso   1.000  B 
  B553     1.0000 0.61720  0.88280  0.50000  Biso   1.000  B 
  O20      1.0000 0.72171  0.90717  0.50561  Biso   1.000  O 
  B554     1.0000 0.61140  0.78510  0.50000  Biso   1.000  B 
  B555     1.0000 0.63260  0.92810  0.50000  Biso   1.000  B 
  B556     1.0000 0.57190  0.86740  0.50000  Biso   1.000  B 
  C58      1.0000 0.75306  0.92122  0.46489  Biso   1.000  C 
  C59      1.0000 0.80835  0.93826  0.47990  Biso   1.000  C 
  H134     1.0000 0.73540  0.95552  0.45069  Biso   1.000  H 
  H135     1.0000 0.75403  0.89443  0.43257  Biso   1.000  H 
  H136     1.0000 0.81786  0.96671  0.45177  Biso   1.000  H 
  C60      1.0000 0.85178  0.90115  0.47635  Biso   1.000  C 
  H137     1.0000 0.80957  0.95607  0.51701  Biso   1.000  H 
  H138     1.0000 0.88767  0.92228  0.47249  Biso   1.000  H 
  H139     1.0000 0.84548  0.87803  0.44290  Biso   1.000  H 
  H140     1.0000 0.85566  0.87714  0.50953  Biso   1.000  H 
  B557     1.0000 0.50000  0.07190  0.63260  Biso   1.000  B 
  B558     1.0000 0.50000  0.11720  0.61720  Biso   1.000  B 
  B559     1.0000 0.50000  0.13260  0.57190  Biso   1.000  B 
  B560     1.0000 0.50000  0.15650  0.65650  Biso   1.000  B 
  B561     1.0000 0.50000  0.14470  0.70580  Biso   1.000  B 
  B562     1.0000 0.50000  0.20580  0.64470  Biso   1.000  B 
  B563     1.0000 0.50000  0.17950  0.74200  Biso   1.000  B 
  B564     1.0000 0.50000  0.11140  0.71490  Biso   1.000  B 
  B565     1.0000 0.50000  0.24200  0.67950  Biso   1.000  B 
  B566     1.0000 0.50000  0.21490  0.61140  Biso   1.000  B 
  B567     1.0000 0.50000  0.23070  0.73070  Biso   1.000  B 
  B568     1.0000 0.50000  0.26930  0.76930  Biso   1.000  B 
  B569     1.0000 0.50000  0.16950  0.77510  Biso   1.000  B 
  B570     1.0000 0.50000  0.25800  0.82050  Biso   1.000  B 
  B571     1.0000 0.50000  0.27510  0.66950  Biso   1.000  B 
  B572     1.0000 0.50000  0.32050  0.75800  Biso   1.000  B 
  B573     1.0000 0.50000  0.29420  0.85530  Biso   1.000  B 
  B574     1.0000 0.50000  0.22490  0.83050  Biso   1.000  B 
  B575     1.0000 0.50000  0.35530  0.79420  Biso   1.000  B 
  B576     1.0000 0.50000  0.33050  0.72490  Biso   1.000  B 
  B577     1.0000 0.50000  0.34350  0.84350  Biso   1.000  B 
  B578     1.0000 0.50000  0.38280  0.88280  Biso   1.000  B 
  O21      1.0000 0.49454  0.28009  0.90905  Biso   1.000  O 
  B579     1.0000 0.50000  0.38860  0.78510  Biso   1.000  B 
  B580     1.0000 0.50000  0.36740  0.92810  Biso   1.000  B 
  B581     1.0000 0.50000  0.42810  0.86740  Biso   1.000  B 
  C61      1.0000 0.53862  0.27093  0.93370  Biso   1.000  C 
  C62      1.0000 0.54513  0.21348  0.94150  Biso   1.000  C 
  H141     1.0000 0.53204  0.28713  0.97095  Biso   1.000  H 
  H142     1.0000 0.57104  0.29057  0.91700  Biso   1.000  H 
  H143     1.0000 0.55042  0.20506  0.98209  Biso   1.000  H 
  C63      1.0000 0.58970  0.19500  0.91528  Biso   1.000  C 
  H144     1.0000 0.51046  0.19511  0.92742  Biso   1.000  H 
  H145     1.0000 0.60729  0.16669  0.93851  Biso   1.000  H 
  H146     1.0000 0.61796  0.22492  0.91017  Biso   1.000  H 
  H147     1.0000 0.58197  0.17904  0.87891  Biso   1.000  H 
  B582     1.0000 0.50000  0.07190  0.36740  Biso   1.000  B 
  B583     1.0000 0.50000  0.11720  0.38280  Biso   1.000  B 
  B584     1.0000 0.50000  0.13260  0.42810  Biso   1.000  B 
  B585     1.0000 0.50000  0.15650  0.34350  Biso   1.000  B 
  B586     1.0000 0.50000  0.14470  0.29420  Biso   1.000  B 
  B587     1.0000 0.50000  0.20580  0.35530  Biso   1.000  B 
  B588     1.0000 0.50000  0.17950  0.25800  Biso   1.000  B 
  B589     1.0000 0.50000  0.11140  0.28510  Biso   1.000  B 
  B590     1.0000 0.50000  0.24200  0.32050  Biso   1.000  B 
  B591     1.0000 0.50000  0.21490  0.38860  Biso   1.000  B 
  B592     1.0000 0.50000  0.23070  0.26930  Biso   1.000  B 
  B593     1.0000 0.50000  0.26930  0.23070  Biso   1.000  B 
  B594     1.0000 0.50000  0.16950  0.22490  Biso   1.000  B 
  B595     1.0000 0.50000  0.25800  0.17950  Biso   1.000  B 
  B596     1.0000 0.50000  0.27510  0.33050  Biso   1.000  B 
  B597     1.0000 0.50000  0.32050  0.24200  Biso   1.000  B 
  B598     1.0000 0.50000  0.29420  0.14470  Biso   1.000  B 
  B599     1.0000 0.50000  0.22490  0.16950  Biso   1.000  B 
  B600     1.0000 0.50000  0.35530  0.20580  Biso   1.000  B 
  B601     1.0000 0.50000  0.33050  0.27510  Biso   1.000  B 
  B602     1.0000 0.50000  0.34350  0.15650  Biso   1.000  B 
  B603     1.0000 0.50000  0.38280  0.11720  Biso   1.000  B 
  O22      1.0000 0.50546  0.28009  0.09095  Biso   1.000  O 
  B604     1.0000 0.50000  0.38860  0.21490  Biso   1.000  B 
  B605     1.0000 0.50000  0.36740  0.07190  Biso   1.000  B 
  B606     1.0000 0.50000  0.42810  0.13260  Biso   1.000  B 
  C64      1.0000 0.46138  0.27093  0.06630  Biso   1.000  C 
  C65      1.0000 0.45487  0.21348  0.05850  Biso   1.000  C 
  H148     1.0000 0.46796  0.28713  0.02905  Biso   1.000  H 
  H149     1.0000 0.42896  0.29057  0.08300  Biso   1.000  H 
  H150     1.0000 0.44958  0.20506  0.01791  Biso   1.000  H 
  C66      1.0000 0.41030  0.19500  0.08472  Biso   1.000  C 
  H151     1.0000 0.48954  0.19511  0.07258  Biso   1.000  H 
  H152     1.0000 0.39271  0.16669  0.06149  Biso   1.000  H 
  H153     1.0000 0.38204  0.22492  0.08983  Biso   1.000  H 
  H154     1.0000 0.41803  0.17904  0.12109  Biso   1.000  H 
  B607     1.0000 0.50000  0.92810  0.36740  Biso   1.000  B 
  B608     1.0000 0.50000  0.88280  0.38280  Biso   1.000  B 
  B609     1.0000 0.50000  0.86740  0.42810  Biso   1.000  B 
  B610     1.0000 0.50000  0.84350  0.34350  Biso   1.000  B 
  B611     1.0000 0.50000  0.85530  0.29420  Biso   1.000  B 
  B612     1.0000 0.50000  0.79420  0.35530  Biso   1.000  B 
  B613     1.0000 0.50000  0.82050  0.25800  Biso   1.000  B 
  B614     1.0000 0.50000  0.88860  0.28510  Biso   1.000  B 
  B615     1.0000 0.50000  0.75800  0.32050  Biso   1.000  B 
  B616     1.0000 0.50000  0.78510  0.38860  Biso   1.000  B 
  B617     1.0000 0.50000  0.76930  0.26930  Biso   1.000  B 
  B618     1.0000 0.50000  0.73070  0.23070  Biso   1.000  B 
  B619     1.0000 0.50000  0.83050  0.22490  Biso   1.000  B 
  B620     1.0000 0.50000  0.74200  0.17950  Biso   1.000  B 
  B621     1.0000 0.50000  0.72490  0.33050  Biso   1.000  B 
  B622     1.0000 0.50000  0.67950  0.24200  Biso   1.000  B 
  B623     1.0000 0.50000  0.70580  0.14470  Biso   1.000  B 
  B624     1.0000 0.50000  0.77510  0.16950  Biso   1.000  B 
  B625     1.0000 0.50000  0.64470  0.20580  Biso   1.000  B 
  B626     1.0000 0.50000  0.66950  0.27510  Biso   1.000  B 
  B627     1.0000 0.50000  0.65650  0.15650  Biso   1.000  B 
  B628     1.0000 0.50000  0.61720  0.11720  Biso   1.000  B 
  O23      1.0000 0.49454  0.71991  0.09095  Biso   1.000  O 
  B629     1.0000 0.50000  0.61140  0.21490  Biso   1.000  B 
  B630     1.0000 0.50000  0.63260  0.07190  Biso   1.000  B 
  B631     1.0000 0.50000  0.57190  0.13260  Biso   1.000  B 
  C67      1.0000 0.53862  0.72907  0.06630  Biso   1.000  C 
  C68      1.0000 0.54513  0.78652  0.05850  Biso   1.000  C 
  H155     1.0000 0.53204  0.71287  0.02905  Biso   1.000  H 
  H156     1.0000 0.57104  0.70943  0.08300  Biso   1.000  H 
  H157     1.0000 0.55042  0.79494  0.01791  Biso   1.000  H 
  C69      1.0000 0.58970  0.80500  0.08472  Biso   1.000  C 
  H158     1.0000 0.51046  0.80489  0.07258  Biso   1.000  H 
  H159     1.0000 0.60729  0.83331  0.06149  Biso   1.000  H 
  H160     1.0000 0.61796  0.77508  0.08983  Biso   1.000  H 
  H161     1.0000 0.58197  0.82096  0.12109  Biso   1.000  H 
  B632     1.0000 0.50000  0.92810  0.63260  Biso   1.000  B 
  B633     1.0000 0.50000  0.88280  0.61720  Biso   1.000  B 
  B634     1.0000 0.50000  0.86740  0.57190  Biso   1.000  B 
  B635     1.0000 0.50000  0.84350  0.65650  Biso   1.000  B 
  B636     1.0000 0.50000  0.85530  0.70580  Biso   1.000  B 
  B637     1.0000 0.50000  0.79420  0.64470  Biso   1.000  B 
  B638     1.0000 0.50000  0.82050  0.74200  Biso   1.000  B 
  B639     1.0000 0.50000  0.88860  0.71490  Biso   1.000  B 
  B640     1.0000 0.50000  0.75800  0.67950  Biso   1.000  B 
  B641     1.0000 0.50000  0.78510  0.61140  Biso   1.000  B 
  B642     1.0000 0.50000  0.76930  0.73070  Biso   1.000  B 
  B643     1.0000 0.50000  0.73070  0.76930  Biso   1.000  B 
  B644     1.0000 0.50000  0.83050  0.77510  Biso   1.000  B 
  B645     1.0000 0.50000  0.74200  0.82050  Biso   1.000  B 
  B646     1.0000 0.50000  0.72490  0.66950  Biso   1.000  B 
  B647     1.0000 0.50000  0.67950  0.75800  Biso   1.000  B 
  B648     1.0000 0.50000  0.70580  0.85530  Biso   1.000  B 
  B649     1.0000 0.50000  0.77510  0.83050  Biso   1.000  B 
  B650     1.0000 0.50000  0.64470  0.79420  Biso   1.000  B 
  B651     1.0000 0.50000  0.66950  0.72490  Biso   1.000  B 
  B652     1.0000 0.50000  0.65650  0.84350  Biso   1.000  B 
  B653     1.0000 0.50000  0.61720  0.88280  Biso   1.000  B 
  O24      1.0000 0.50546  0.71991  0.90905  Biso   1.000  O 
  B654     1.0000 0.50000  0.61140  0.78510  Biso   1.000  B 
  B655     1.0000 0.50000  0.63260  0.92810  Biso   1.000  B 
  B656     1.0000 0.50000  0.57190  0.86740  Biso   1.000  B 
  C70      1.0000 0.46138  0.72907  0.93370  Biso   1.000  C 
  C71      1.0000 0.45487  0.78652  0.94150  Biso   1.000  C 
  H162     1.0000 0.46796  0.71287  0.97095  Biso   1.000  H 
  H163     1.0000 0.42896  0.70943  0.91700  Biso   1.000  H 
  H164     1.0000 0.44958  0.79494  0.98209  Biso   1.000  H 
  C72      1.0000 0.41030  0.80500  0.91528  Biso   1.000  C 
  H165     1.0000 0.48954  0.80489  0.92742  Biso   1.000  H 
  H166     1.0000 0.39271  0.83331  0.93851  Biso   1.000  H 
  H167     1.0000 0.38204  0.77508  0.91017  Biso   1.000  H 
  H168     1.0000 0.41803  0.82096  0.87891  Biso   1.000  H 
