data_image0
_cell_length_a       26.896
_cell_length_b       26.896
_cell_length_c       26.896
_cell_angle_alpha    90
_cell_angle_beta     90
_cell_angle_gamma    90

_symmetry_space_group_name_H-M    "P 1"
_symmetry_int_tables_number       1

loop_
  _symmetry_equiv_pos_as_xyz
  'x, y, z'

loop_
  _atom_site_label
  _atom_site_occupancy
  _atom_site_fract_x
  _atom_site_fract_y
  _atom_site_fract_z
  _atom_site_thermal_displace_type
  _atom_site_B_iso_or_equiv
  _atom_site_type_symbol
  B1       1.0000 0.09204  0.00000  0.00000  Biso   1.000  B 
  B2       1.0000 0.90796  0.00000  0.00000  Biso   1.000  B 
  B3       1.0000 0.00000  0.09204  0.00000  Biso   1.000  B 
  B4       1.0000 0.00000  0.90796  0.00000  Biso   1.000  B 
  B5       1.0000 0.00000  0.00000  0.09204  Biso   1.000  B 
  B6       1.0000 0.00000  0.00000  0.90796  Biso   1.000  B 
  B7       1.0000 0.09204  0.50000  0.50000  Biso   1.000  B 
  B8       1.0000 0.90796  0.50000  0.50000  Biso   1.000  B 
  B9       1.0000 0.00000  0.59204  0.50000  Biso   1.000  B 
  B10      1.0000 0.00000  0.40796  0.50000  Biso   1.000  B 
  B11      1.0000 0.00000  0.50000  0.59204  Biso   1.000  B 
  B12      1.0000 0.00000  0.50000  0.40796  Biso   1.000  B 
  B13      1.0000 0.59204  0.00000  0.50000  Biso   1.000  B 
  B14      1.0000 0.40796  0.00000  0.50000  Biso   1.000  B 
  B15      1.0000 0.50000  0.09204  0.50000  Biso   1.000  B 
  B16      1.0000 0.50000  0.90796  0.50000  Biso   1.000  B 
  B17      1.0000 0.50000  0.00000  0.59204  Biso   1.000  B 
  B18      1.0000 0.50000  0.00000  0.40796  Biso   1.000  B 
  B19      1.0000 0.59204  0.50000  0.00000  Biso   1.000  B 
  B20      1.0000 0.40796  0.50000  0.00000  Biso   1.000  B 
  B21      1.0000 0.50000  0.59204  0.00000  Biso   1.000  B 
  B22      1.0000 0.50000  0.40796  0.00000  Biso   1.000  B 
  B23      1.0000 0.50000  0.50000  0.09204  Biso   1.000  B 
  B24      1.0000 0.50000  0.50000  0.90796  Biso   1.000  B 
  B25      1.0000 0.04540  0.04540  0.04540  Biso   1.000  B 
  B26      1.0000 0.95460  0.95460  0.04540  Biso   1.000  B 
  B27      1.0000 0.95460  0.04540  0.95460  Biso   1.000  B 
  B28      1.0000 0.04540  0.95460  0.95460  Biso   1.000  B 
  B29      1.0000 0.04540  0.04540  0.95460  Biso   1.000  B 
  B30      1.0000 0.95460  0.95460  0.95460  Biso   1.000  B 
  B31      1.0000 0.04540  0.95460  0.04540  Biso   1.000  B 
  B32      1.0000 0.95460  0.04540  0.04540  Biso   1.000  B 
  B33      1.0000 0.04540  0.54540  0.54540  Biso   1.000  B 
  B34      1.0000 0.95460  0.45460  0.54540  Biso   1.000  B 
  B35      1.0000 0.95460  0.54540  0.45460  Biso   1.000  B 
  B36      1.0000 0.04540  0.45460  0.45460  Biso   1.000  B 
  B37      1.0000 0.04540  0.54540  0.45460  Biso   1.000  B 
  B38      1.0000 0.95460  0.45460  0.45460  Biso   1.000  B 
  B39      1.0000 0.04540  0.45460  0.54540  Biso   1.000  B 
  B40      1.0000 0.95460  0.54540  0.54540  Biso   1.000  B 
  B41      1.0000 0.54540  0.04540  0.54540  Biso   1.000  B 
  B42      1.0000 0.45460  0.95460  0.54540  Biso   1.000  B 
  B43      1.0000 0.45460  0.04540  0.45460  Biso   1.000  B 
  B44      1.0000 0.54540  0.95460  0.45460  Biso   1.000  B 
  B45      1.0000 0.54540  0.04540  0.45460  Biso   1.000  B 
  B46      1.0000 0.45460  0.95460  0.45460  Biso   1.000  B 
  B47      1.0000 0.54540  0.95460  0.54540  Biso   1.000  B 
  B48      1.0000 0.45460  0.04540  0.54540  Biso   1.000  B 
  B49      1.0000 0.54540  0.54540  0.04540  Biso   1.000  B 
  B50      1.0000 0.45460  0.45460  0.04540  Biso   1.000  B 
  B51      1.0000 0.45460  0.54540  0.95460  Biso   1.000  B 
  B52      1.0000 0.54540  0.45460  0.95460  Biso   1.000  B 
  B53      1.0000 0.54540  0.54540  0.95460  Biso   1.000  B 
  B54      1.0000 0.45460  0.45460  0.95460  Biso   1.000  B 
  B55      1.0000 0.54540  0.45460  0.04540  Biso   1.000  B 
  B56      1.0000 0.45460  0.54540  0.04540  Biso   1.000  B 
  B57      1.0000 0.13260  0.00000  0.07190  Biso   1.000  B 
  B58      1.0000 0.11720  0.00000  0.11720  Biso   1.000  B 
  B59      1.0000 0.07190  0.00000  0.13260  Biso   1.000  B 
  B60      1.0000 0.15650  0.00000  0.15650  Biso   1.000  B 
  B61      1.0000 0.20580  0.00000  0.14470  Biso   1.000  B 
  B62      1.0000 0.14470  0.00000  0.20580  Biso   1.000  B 
  B63      1.0000 0.24200  0.00000  0.17950  Biso   1.000  B 
  B64      1.0000 0.21490  0.00000  0.11140  Biso   1.000  B 
  B65      1.0000 0.17950  0.00000  0.24200  Biso   1.000  B 
  B66      1.0000 0.11140  0.00000  0.21490  Biso   1.000  B 
  B67      1.0000 0.23070  0.00000  0.23070  Biso   1.000  B 
  B68      1.0000 0.26930  0.00000  0.26930  Biso   1.000  B 
  B69      1.0000 0.27510  0.00000  0.16950  Biso   1.000  B 
  B70      1.0000 0.32050  0.00000  0.25800  Biso   1.000  B 
  B71      1.0000 0.16950  0.00000  0.27510  Biso   1.000  B 
  B72      1.0000 0.25800  0.00000  0.32050  Biso   1.000  B 
  B73      1.0000 0.35530  0.00000  0.29420  Biso   1.000  B 
  N1       1.0000 0.33939  0.01846  0.20639  Biso   1.000  N 
  B74      1.0000 0.29420  0.00000  0.35530  Biso   1.000  B 
  B75      1.0000 0.22490  0.00000  0.33050  Biso   1.000  B 
  B76      1.0000 0.34350  0.00000  0.34350  Biso   1.000  B 
  B77      1.0000 0.38280  0.00000  0.38280  Biso   1.000  B 
  B78      1.0000 0.38860  0.00000  0.28510  Biso   1.000  B 
  B79      1.0000 0.28510  0.00000  0.38860  Biso   1.000  B 
  B80      1.0000 0.42810  0.00000  0.36740  Biso   1.000  B 
  B81      1.0000 0.36740  0.00000  0.42810  Biso   1.000  B 
  H1       1.0000 0.35513  0.05454  0.21115  Biso   1.000  H 
  C1       1.0000 0.37098  0.98576  0.17431  Biso   1.000  C 
  C2       1.0000 0.36918  0.92790  0.18300  Biso   1.000  C 
  H2       1.0000 0.33308  0.91641  0.19918  Biso   1.000  H 
  C3       1.0000 0.41325  0.91631  0.21674  Biso   1.000  C 
  H3       1.0000 0.37509  0.90663  0.14722  Biso   1.000  H 
  C4       1.0000 0.45012  0.95805  0.20770  Biso   1.000  C 
  H4       1.0000 0.42876  0.87829  0.21479  Biso   1.000  H 
  H5       1.0000 0.40028  0.92063  0.25562  Biso   1.000  H 
  C5       1.0000 0.42511  0.99840  0.17801  Biso   1.000  C 
  H6       1.0000 0.48226  0.94574  0.18543  Biso   1.000  H 
  H7       1.0000 0.46352  0.97404  0.24401  Biso   1.000  H 
  H8       1.0000 0.44174  0.99707  0.13984  Biso   1.000  H 
  H9       1.0000 0.43380  0.03437  0.19376  Biso   1.000  H 
  H10      1.0000 0.36120  0.99730  0.13505  Biso   1.000  H 
  B82      1.0000 0.86740  0.00000  0.07190  Biso   1.000  B 
  B83      1.0000 0.88280  0.00000  0.11720  Biso   1.000  B 
  B84      1.0000 0.92810  0.00000  0.13260  Biso   1.000  B 
  B85      1.0000 0.84350  0.00000  0.15650  Biso   1.000  B 
  B86      1.0000 0.79420  0.00000  0.14470  Biso   1.000  B 
  B87      1.0000 0.85530  0.00000  0.20580  Biso   1.000  B 
  B88      1.0000 0.75800  0.00000  0.17950  Biso   1.000  B 
  B89      1.0000 0.78510  0.00000  0.11140  Biso   1.000  B 
  B90      1.0000 0.82050  0.00000  0.24200  Biso   1.000  B 
  B91      1.0000 0.88860  0.00000  0.21490  Biso   1.000  B 
  B92      1.0000 0.76930  0.00000  0.23070  Biso   1.000  B 
  B93      1.0000 0.73070  0.00000  0.26930  Biso   1.000  B 
  B94      1.0000 0.72490  0.00000  0.16950  Biso   1.000  B 
  B95      1.0000 0.67950  0.00000  0.25800  Biso   1.000  B 
  B96      1.0000 0.83050  0.00000  0.27510  Biso   1.000  B 
  B97      1.0000 0.74200  0.00000  0.32050  Biso   1.000  B 
  B98      1.0000 0.64470  0.00000  0.29420  Biso   1.000  B 
  N2       1.0000 0.66061  0.98154  0.20639  Biso   1.000  N 
  B99      1.0000 0.70580  0.00000  0.35530  Biso   1.000  B 
  B100     1.0000 0.77510  0.00000  0.33050  Biso   1.000  B 
  B101     1.0000 0.65650  0.00000  0.34350  Biso   1.000  B 
  B102     1.0000 0.61720  0.00000  0.38280  Biso   1.000  B 
  B103     1.0000 0.61140  0.00000  0.28510  Biso   1.000  B 
  B104     1.0000 0.71490  0.00000  0.38860  Biso   1.000  B 
  B105     1.0000 0.57190  0.00000  0.36740  Biso   1.000  B 
  B106     1.0000 0.63260  0.00000  0.42810  Biso   1.000  B 
  H11      1.0000 0.64487  0.94546  0.21115  Biso   1.000  H 
  C6       1.0000 0.62902  0.01424  0.17431  Biso   1.000  C 
  C7       1.0000 0.63082  0.07209  0.18300  Biso   1.000  C 
  H12      1.0000 0.66692  0.08359  0.19918  Biso   1.000  H 
  C8       1.0000 0.58675  0.08369  0.21674  Biso   1.000  C 
  H13      1.0000 0.62491  0.09337  0.14722  Biso   1.000  H 
  C9       1.0000 0.54988  0.04195  0.20770  Biso   1.000  C 
  H14      1.0000 0.57124  0.12171  0.21479  Biso   1.000  H 
  H15      1.0000 0.59972  0.07937  0.25562  Biso   1.000  H 
  C10      1.0000 0.57489  0.00160  0.17801  Biso   1.000  C 
  H16      1.0000 0.51774  0.05426  0.18543  Biso   1.000  H 
  H17      1.0000 0.53648  0.02596  0.24401  Biso   1.000  H 
  H18      1.0000 0.55826  0.00293  0.13984  Biso   1.000  H 
  H19      1.0000 0.56620  0.96563  0.19376  Biso   1.000  H 
  H20      1.0000 0.63880  0.00270  0.13505  Biso   1.000  H 
  B107     1.0000 0.86740  0.00000  0.92810  Biso   1.000  B 
  B108     1.0000 0.88280  0.00000  0.88280  Biso   1.000  B 
  B109     1.0000 0.92810  0.00000  0.86740  Biso   1.000  B 
  B110     1.0000 0.84350  0.00000  0.84350  Biso   1.000  B 
  B111     1.0000 0.79420  0.00000  0.85530  Biso   1.000  B 
  B112     1.0000 0.85530  0.00000  0.79420  Biso   1.000  B 
  B113     1.0000 0.75800  0.00000  0.82050  Biso   1.000  B 
  B114     1.0000 0.78510  0.00000  0.88860  Biso   1.000  B 
  B115     1.0000 0.82050  0.00000  0.75800  Biso   1.000  B 
  B116     1.0000 0.88860  0.00000  0.78510  Biso   1.000  B 
  B117     1.0000 0.76930  0.00000  0.76930  Biso   1.000  B 
  B118     1.0000 0.73070  0.00000  0.73070  Biso   1.000  B 
  B119     1.0000 0.72490  0.00000  0.83050  Biso   1.000  B 
  B120     1.0000 0.67950  0.00000  0.74200  Biso   1.000  B 
  B121     1.0000 0.83050  0.00000  0.72490  Biso   1.000  B 
  B122     1.0000 0.74200  0.00000  0.67950  Biso   1.000  B 
  B123     1.0000 0.64470  0.00000  0.70580  Biso   1.000  B 
  N3       1.0000 0.66061  0.01846  0.79361  Biso   1.000  N 
  B124     1.0000 0.70580  0.00000  0.64470  Biso   1.000  B 
  B125     1.0000 0.77510  0.00000  0.66950  Biso   1.000  B 
  B126     1.0000 0.65650  0.00000  0.65650  Biso   1.000  B 
  B127     1.0000 0.61720  0.00000  0.61720  Biso   1.000  B 
  B128     1.0000 0.61140  0.00000  0.71490  Biso   1.000  B 
  B129     1.0000 0.71490  0.00000  0.61140  Biso   1.000  B 
  B130     1.0000 0.57190  0.00000  0.63260  Biso   1.000  B 
  B131     1.0000 0.63260  0.00000  0.57190  Biso   1.000  B 
  H21      1.0000 0.64487  0.05454  0.78885  Biso   1.000  H 
  C11      1.0000 0.62902  0.98576  0.82569  Biso   1.000  C 
  C12      1.0000 0.63082  0.92790  0.81700  Biso   1.000  C 
  H22      1.0000 0.66692  0.91641  0.80082  Biso   1.000  H 
  C13      1.0000 0.58675  0.91631  0.78326  Biso   1.000  C 
  H23      1.0000 0.62491  0.90663  0.85277  Biso   1.000  H 
  C14      1.0000 0.54988  0.95805  0.79230  Biso   1.000  C 
  H24      1.0000 0.57124  0.87829  0.78521  Biso   1.000  H 
  H25      1.0000 0.59972  0.92063  0.74437  Biso   1.000  H 
  C15      1.0000 0.57489  0.99840  0.82199  Biso   1.000  C 
  H26      1.0000 0.51774  0.94574  0.81457  Biso   1.000  H 
  H27      1.0000 0.53648  0.97404  0.75599  Biso   1.000  H 
  H28      1.0000 0.55826  0.99707  0.86016  Biso   1.000  H 
  H29      1.0000 0.56620  0.03437  0.80624  Biso   1.000  H 
  H30      1.0000 0.63880  0.99730  0.86495  Biso   1.000  H 
  B132     1.0000 0.13260  0.00000  0.92810  Biso   1.000  B 
  B133     1.0000 0.11720  0.00000  0.88280  Biso   1.000  B 
  B134     1.0000 0.07190  0.00000  0.86740  Biso   1.000  B 
  B135     1.0000 0.15650  0.00000  0.84350  Biso   1.000  B 
  B136     1.0000 0.20580  0.00000  0.85530  Biso   1.000  B 
  B137     1.0000 0.14470  0.00000  0.79420  Biso   1.000  B 
  B138     1.0000 0.24200  0.00000  0.82050  Biso   1.000  B 
  B139     1.0000 0.21490  0.00000  0.88860  Biso   1.000  B 
  B140     1.0000 0.17950  0.00000  0.75800  Biso   1.000  B 
  B141     1.0000 0.11140  0.00000  0.78510  Biso   1.000  B 
  B142     1.0000 0.23070  0.00000  0.76930  Biso   1.000  B 
  B143     1.0000 0.26930  0.00000  0.73070  Biso   1.000  B 
  B144     1.0000 0.27510  0.00000  0.83050  Biso   1.000  B 
  B145     1.0000 0.32050  0.00000  0.74200  Biso   1.000  B 
  B146     1.0000 0.16950  0.00000  0.72490  Biso   1.000  B 
  B147     1.0000 0.25800  0.00000  0.67950  Biso   1.000  B 
  B148     1.0000 0.35530  0.00000  0.70580  Biso   1.000  B 
  N4       1.0000 0.33939  0.98154  0.79361  Biso   1.000  N 
  B149     1.0000 0.29420  0.00000  0.64470  Biso   1.000  B 
  B150     1.0000 0.22490  0.00000  0.66950  Biso   1.000  B 
  B151     1.0000 0.34350  0.00000  0.65650  Biso   1.000  B 
  B152     1.0000 0.38280  0.00000  0.61720  Biso   1.000  B 
  B153     1.0000 0.38860  0.00000  0.71490  Biso   1.000  B 
  B154     1.0000 0.28510  0.00000  0.61140  Biso   1.000  B 
  B155     1.0000 0.42810  0.00000  0.63260  Biso   1.000  B 
  B156     1.0000 0.36740  0.00000  0.57190  Biso   1.000  B 
  H31      1.0000 0.35513  0.94546  0.78885  Biso   1.000  H 
  C16      1.0000 0.37098  0.01424  0.82569  Biso   1.000  C 
  C17      1.0000 0.36918  0.07209  0.81700  Biso   1.000  C 
  H32      1.0000 0.33308  0.08359  0.80082  Biso   1.000  H 
  C18      1.0000 0.41325  0.08369  0.78326  Biso   1.000  C 
  H33      1.0000 0.37509  0.09337  0.85277  Biso   1.000  H 
  C19      1.0000 0.45012  0.04195  0.79230  Biso   1.000  C 
  H34      1.0000 0.42876  0.12171  0.78521  Biso   1.000  H 
  H35      1.0000 0.40028  0.07937  0.74437  Biso   1.000  H 
  C20      1.0000 0.42511  0.00160  0.82199  Biso   1.000  C 
  H36      1.0000 0.48226  0.05426  0.81457  Biso   1.000  H 
  H37      1.0000 0.46352  0.02596  0.75599  Biso   1.000  H 
  H38      1.0000 0.44174  0.00293  0.86016  Biso   1.000  H 
  H39      1.0000 0.43380  0.96563  0.80624  Biso   1.000  H 
  H40      1.0000 0.36120  0.00270  0.86495  Biso   1.000  H 
  B157     1.0000 0.07190  0.13260  0.00000  Biso   1.000  B 
  B158     1.0000 0.11720  0.11720  0.00000  Biso   1.000  B 
  B159     1.0000 0.13260  0.07190  0.00000  Biso   1.000  B 
  B160     1.0000 0.15650  0.15650  0.00000  Biso   1.000  B 
  B161     1.0000 0.14470  0.20580  0.00000  Biso   1.000  B 
  B162     1.0000 0.20580  0.14470  0.00000  Biso   1.000  B 
  B163     1.0000 0.17950  0.24200  0.00000  Biso   1.000  B 
  B164     1.0000 0.11140  0.21490  0.00000  Biso   1.000  B 
  B165     1.0000 0.24200  0.17950  0.00000  Biso   1.000  B 
  B166     1.0000 0.21490  0.11140  0.00000  Biso   1.000  B 
  B167     1.0000 0.23070  0.23070  0.00000  Biso   1.000  B 
  B168     1.0000 0.26930  0.26930  0.00000  Biso   1.000  B 
  B169     1.0000 0.16950  0.27510  0.00000  Biso   1.000  B 
  B170     1.0000 0.25800  0.32050  0.00000  Biso   1.000  B 
  B171     1.0000 0.27510  0.16950  0.00000  Biso   1.000  B 
  B172     1.0000 0.32050  0.25800  0.00000  Biso   1.000  B 
  B173     1.0000 0.29420  0.35530  0.00000  Biso   1.000  B 
  N5       1.0000 0.20658  0.34196  0.01507  Biso   1.000  N 
  B174     1.0000 0.35530  0.29420  0.00000  Biso   1.000  B 
  B175     1.0000 0.33050  0.22490  0.00000  Biso   1.000  B 
  B176     1.0000 0.34350  0.34350  0.00000  Biso   1.000  B 
  B177     1.0000 0.38280  0.38280  0.00000  Biso   1.000  B 
  B178     1.0000 0.28510  0.38860  0.00000  Biso   1.000  B 
  B179     1.0000 0.38860  0.28510  0.00000  Biso   1.000  B 
  B180     1.0000 0.36740  0.42810  0.00000  Biso   1.000  B 
  B181     1.0000 0.42810  0.36740  0.00000  Biso   1.000  B 
  H41      1.0000 0.20662  0.35720  0.05093  Biso   1.000  H 
  C21      1.0000 0.16954  0.36701  0.98131  Biso   1.000  C 
  C22      1.0000 0.17707  0.35655  0.92554  Biso   1.000  C 
  H42      1.0000 0.20196  0.32437  0.91777  Biso   1.000  H 
  C23      1.0000 0.20028  0.40380  0.90481  Biso   1.000  C 
  H43      1.0000 0.14009  0.34922  0.90806  Biso   1.000  H 
  C24      1.0000 0.19055  0.44784  0.94049  Biso   1.000  C 
  H44      1.0000 0.18695  0.41320  0.86713  Biso   1.000  H 
  H45      1.0000 0.24100  0.39678  0.90300  Biso   1.000  H 
  C25      1.0000 0.16734  0.42465  0.98756  Biso   1.000  C 
  H46      1.0000 0.16562  0.47553  0.92333  Biso   1.000  H 
  H47      1.0000 0.22757  0.46458  0.95019  Biso   1.000  H 
  H48      1.0000 0.12854  0.43778  0.99124  Biso   1.000  H 
  H49      1.0000 0.18921  0.43648  0.02075  Biso   1.000  H 
  H50      1.0000 0.13217  0.35253  0.99269  Biso   1.000  H 
  B182     1.0000 0.07190  0.86740  0.00000  Biso   1.000  B 
  B183     1.0000 0.11720  0.88280  0.00000  Biso   1.000  B 
  B184     1.0000 0.13260  0.92810  0.00000  Biso   1.000  B 
  B185     1.0000 0.15650  0.84350  0.00000  Biso   1.000  B 
  B186     1.0000 0.14470  0.79420  0.00000  Biso   1.000  B 
  B187     1.0000 0.20580  0.85530  0.00000  Biso   1.000  B 
  B188     1.0000 0.17950  0.75800  0.00000  Biso   1.000  B 
  B189     1.0000 0.11140  0.78510  0.00000  Biso   1.000  B 
  B190     1.0000 0.24200  0.82050  0.00000  Biso   1.000  B 
  B191     1.0000 0.21490  0.88860  0.00000  Biso   1.000  B 
  B192     1.0000 0.23070  0.76930  0.00000  Biso   1.000  B 
  B193     1.0000 0.26930  0.73070  0.00000  Biso   1.000  B 
  B194     1.0000 0.16950  0.72490  0.00000  Biso   1.000  B 
  B195     1.0000 0.25800  0.67950  0.00000  Biso   1.000  B 
  B196     1.0000 0.27510  0.83050  0.00000  Biso   1.000  B 
  B197     1.0000 0.32050  0.74200  0.00000  Biso   1.000  B 
  B198     1.0000 0.29420  0.64470  0.00000  Biso   1.000  B 
  N6       1.0000 0.20658  0.65804  0.98493  Biso   1.000  N 
  B199     1.0000 0.35530  0.70580  0.00000  Biso   1.000  B 
  B200     1.0000 0.33050  0.77510  0.00000  Biso   1.000  B 
  B201     1.0000 0.34350  0.65650  0.00000  Biso   1.000  B 
  B202     1.0000 0.38280  0.61720  0.00000  Biso   1.000  B 
  B203     1.0000 0.28510  0.61140  0.00000  Biso   1.000  B 
  B204     1.0000 0.38860  0.71490  0.00000  Biso   1.000  B 
  B205     1.0000 0.36740  0.57190  0.00000  Biso   1.000  B 
  B206     1.0000 0.42810  0.63260  0.00000  Biso   1.000  B 
  H51      1.0000 0.20662  0.64280  0.94907  Biso   1.000  H 
  C26      1.0000 0.16954  0.63299  0.01869  Biso   1.000  C 
  C27      1.0000 0.17707  0.64345  0.07446  Biso   1.000  C 
  H52      1.0000 0.20196  0.67562  0.08223  Biso   1.000  H 
  C28      1.0000 0.20028  0.59620  0.09519  Biso   1.000  C 
  H53      1.0000 0.14009  0.65078  0.09193  Biso   1.000  H 
  C29      1.0000 0.19055  0.55216  0.05952  Biso   1.000  C 
  H54      1.0000 0.18695  0.58680  0.13287  Biso   1.000  H 
  H55      1.0000 0.24100  0.60322  0.09700  Biso   1.000  H 
  C30      1.0000 0.16734  0.57535  0.01244  Biso   1.000  C 
  H56      1.0000 0.16562  0.52447  0.07666  Biso   1.000  H 
  H57      1.0000 0.22757  0.53542  0.04981  Biso   1.000  H 
  H58      1.0000 0.12854  0.56222  0.00876  Biso   1.000  H 
  H59      1.0000 0.18921  0.56352  0.97925  Biso   1.000  H 
  H60      1.0000 0.13217  0.64747  0.00731  Biso   1.000  H 
  B207     1.0000 0.92810  0.86740  0.00000  Biso   1.000  B 
  B208     1.0000 0.88280  0.88280  0.00000  Biso   1.000  B 
  B209     1.0000 0.86740  0.92810  0.00000  Biso   1.000  B 
  B210     1.0000 0.84350  0.84350  0.00000  Biso   1.000  B 
  B211     1.0000 0.85530  0.79420  0.00000  Biso   1.000  B 
  B212     1.0000 0.79420  0.85530  0.00000  Biso   1.000  B 
  B213     1.0000 0.82050  0.75800  0.00000  Biso   1.000  B 
  B214     1.0000 0.88860  0.78510  0.00000  Biso   1.000  B 
  B215     1.0000 0.75800  0.82050  0.00000  Biso   1.000  B 
  B216     1.0000 0.78510  0.88860  0.00000  Biso   1.000  B 
  B217     1.0000 0.76930  0.76930  0.00000  Biso   1.000  B 
  B218     1.0000 0.73070  0.73070  0.00000  Biso   1.000  B 
  B219     1.0000 0.83050  0.72490  0.00000  Biso   1.000  B 
  B220     1.0000 0.74200  0.67950  0.00000  Biso   1.000  B 
  B221     1.0000 0.72490  0.83050  0.00000  Biso   1.000  B 
  B222     1.0000 0.67950  0.74200  0.00000  Biso   1.000  B 
  B223     1.0000 0.70580  0.64470  0.00000  Biso   1.000  B 
  N7       1.0000 0.79342  0.65804  0.01507  Biso   1.000  N 
  B224     1.0000 0.64470  0.70580  0.00000  Biso   1.000  B 
  B225     1.0000 0.66950  0.77510  0.00000  Biso   1.000  B 
  B226     1.0000 0.65650  0.65650  0.00000  Biso   1.000  B 
  B227     1.0000 0.61720  0.61720  0.00000  Biso   1.000  B 
  B228     1.0000 0.71490  0.61140  0.00000  Biso   1.000  B 
  B229     1.0000 0.61140  0.71490  0.00000  Biso   1.000  B 
  B230     1.0000 0.63260  0.57190  0.00000  Biso   1.000  B 
  B231     1.0000 0.57190  0.63260  0.00000  Biso   1.000  B 
  H61      1.0000 0.79338  0.64280  0.05093  Biso   1.000  H 
  C31      1.0000 0.83046  0.63299  0.98131  Biso   1.000  C 
  C32      1.0000 0.82293  0.64345  0.92554  Biso   1.000  C 
  H62      1.0000 0.79804  0.67562  0.91777  Biso   1.000  H 
  C33      1.0000 0.79972  0.59620  0.90481  Biso   1.000  C 
  H63      1.0000 0.85991  0.65078  0.90806  Biso   1.000  H 
  C34      1.0000 0.80945  0.55216  0.94049  Biso   1.000  C 
  H64      1.0000 0.81305  0.58680  0.86713  Biso   1.000  H 
  H65      1.0000 0.75900  0.60322  0.90300  Biso   1.000  H 
  C35      1.0000 0.83266  0.57535  0.98756  Biso   1.000  C 
  H66      1.0000 0.83438  0.52447  0.92333  Biso   1.000  H 
  H67      1.0000 0.77243  0.53542  0.95019  Biso   1.000  H 
  H68      1.0000 0.87146  0.56222  0.99124  Biso   1.000  H 
  H69      1.0000 0.81079  0.56352  0.02075  Biso   1.000  H 
  H70      1.0000 0.86783  0.64747  0.99269  Biso   1.000  H 
  B232     1.0000 0.92810  0.13260  0.00000  Biso   1.000  B 
  B233     1.0000 0.88280  0.11720  0.00000  Biso   1.000  B 
  B234     1.0000 0.86740  0.07190  0.00000  Biso   1.000  B 
  B235     1.0000 0.84350  0.15650  0.00000  Biso   1.000  B 
  B236     1.0000 0.85530  0.20580  0.00000  Biso   1.000  B 
  B237     1.0000 0.79420  0.14470  0.00000  Biso   1.000  B 
  B238     1.0000 0.82050  0.24200  0.00000  Biso   1.000  B 
  B239     1.0000 0.88860  0.21490  0.00000  Biso   1.000  B 
  B240     1.0000 0.75800  0.17950  0.00000  Biso   1.000  B 
  B241     1.0000 0.78510  0.11140  0.00000  Biso   1.000  B 
  B242     1.0000 0.76930  0.23070  0.00000  Biso   1.000  B 
  B243     1.0000 0.73070  0.26930  0.00000  Biso   1.000  B 
  B244     1.0000 0.83050  0.27510  0.00000  Biso   1.000  B 
  B245     1.0000 0.74200  0.32050  0.00000  Biso   1.000  B 
  B246     1.0000 0.72490  0.16950  0.00000  Biso   1.000  B 
  B247     1.0000 0.67950  0.25800  0.00000  Biso   1.000  B 
  B248     1.0000 0.70580  0.35530  0.00000  Biso   1.000  B 
  N8       1.0000 0.79342  0.34196  0.98493  Biso   1.000  N 
  B249     1.0000 0.64470  0.29420  0.00000  Biso   1.000  B 
  B250     1.0000 0.66950  0.22490  0.00000  Biso   1.000  B 
  B251     1.0000 0.65650  0.34350  0.00000  Biso   1.000  B 
  B252     1.0000 0.61720  0.38280  0.00000  Biso   1.000  B 
  B253     1.0000 0.71490  0.38860  0.00000  Biso   1.000  B 
  B254     1.0000 0.61140  0.28510  0.00000  Biso   1.000  B 
  B255     1.0000 0.63260  0.42810  0.00000  Biso   1.000  B 
  B256     1.0000 0.57190  0.36740  0.00000  Biso   1.000  B 
  H71      1.0000 0.79338  0.35720  0.94907  Biso   1.000  H 
  C36      1.0000 0.83046  0.36701  0.01869  Biso   1.000  C 
  C37      1.0000 0.82293  0.35655  0.07446  Biso   1.000  C 
  H72      1.0000 0.79804  0.32437  0.08223  Biso   1.000  H 
  C38      1.0000 0.79972  0.40380  0.09519  Biso   1.000  C 
  H73      1.0000 0.85991  0.34922  0.09193  Biso   1.000  H 
  C39      1.0000 0.80945  0.44784  0.05952  Biso   1.000  C 
  H74      1.0000 0.81305  0.41320  0.13287  Biso   1.000  H 
  H75      1.0000 0.75900  0.39678  0.09700  Biso   1.000  H 
  C40      1.0000 0.83266  0.42465  0.01244  Biso   1.000  C 
  H76      1.0000 0.83438  0.47553  0.07666  Biso   1.000  H 
  H77      1.0000 0.77243  0.46458  0.04981  Biso   1.000  H 
  H78      1.0000 0.87146  0.43778  0.00876  Biso   1.000  H 
  H79      1.0000 0.81079  0.43648  0.97925  Biso   1.000  H 
  H80      1.0000 0.86783  0.35253  0.00731  Biso   1.000  H 
  B257     1.0000 0.00000  0.07190  0.13260  Biso   1.000  B 
  B258     1.0000 0.00000  0.11720  0.11720  Biso   1.000  B 
  B259     1.0000 0.00000  0.13260  0.07190  Biso   1.000  B 
  B260     1.0000 0.00000  0.15650  0.15650  Biso   1.000  B 
  B261     1.0000 0.00000  0.14470  0.20580  Biso   1.000  B 
  B262     1.0000 0.00000  0.20580  0.14470  Biso   1.000  B 
  B263     1.0000 0.00000  0.17950  0.24200  Biso   1.000  B 
  B264     1.0000 0.00000  0.11140  0.21490  Biso   1.000  B 
  B265     1.0000 0.00000  0.24200  0.17950  Biso   1.000  B 
  B266     1.0000 0.00000  0.21490  0.11140  Biso   1.000  B 
  B267     1.0000 0.00000  0.23070  0.23070  Biso   1.000  B 
  B268     1.0000 0.00000  0.26930  0.26930  Biso   1.000  B 
  B269     1.0000 0.00000  0.16950  0.27510  Biso   1.000  B 
  B270     1.0000 0.00000  0.25800  0.32050  Biso   1.000  B 
  B271     1.0000 0.00000  0.27510  0.16950  Biso   1.000  B 
  B272     1.0000 0.00000  0.32050  0.25800  Biso   1.000  B 
  B273     1.0000 0.00000  0.29420  0.35530  Biso   1.000  B 
  N9       1.0000 0.01629  0.20669  0.33920  Biso   1.000  N 
  B274     1.0000 0.00000  0.35530  0.29420  Biso   1.000  B 
  B275     1.0000 0.00000  0.33050  0.22490  Biso   1.000  B 
  B276     1.0000 0.00000  0.34350  0.34350  Biso   1.000  B 
  B277     1.0000 0.00000  0.38280  0.38280  Biso   1.000  B 
  B278     1.0000 0.00000  0.28510  0.38860  Biso   1.000  B 
  B279     1.0000 0.00000  0.38860  0.28510  Biso   1.000  B 
  B280     1.0000 0.00000  0.36740  0.42810  Biso   1.000  B 
  B281     1.0000 0.00000  0.42810  0.36740  Biso   1.000  B 
  H81      1.0000 0.04979  0.21057  0.35819  Biso   1.000  H 
  C41      1.0000 0.97747  0.18053  0.37021  Biso   1.000  C 
  C42      1.0000 0.92231  0.19505  0.36295  Biso   1.000  C 
  H82      1.0000 0.91379  0.21314  0.32706  Biso   1.000  H 
  C43      1.0000 0.90883  0.22614  0.40675  Biso   1.000  C 
  H83      1.0000 0.89900  0.16066  0.36685  Biso   1.000  H 
  C44      1.0000 0.94202  0.20953  0.44883  Biso   1.000  C 
  H84      1.0000 0.86844  0.22191  0.41595  Biso   1.000  H 
  H85      1.0000 0.91581  0.26529  0.39786  Biso   1.000  H 
  C45      1.0000 0.98704  0.18621  0.42561  Biso   1.000  C 
  H86      1.0000 0.92349  0.18382  0.47375  Biso   1.000  H 
  H87      1.0000 0.95222  0.24259  0.47063  Biso   1.000  H 
  H88      1.0000 0.99420  0.15002  0.44318  Biso   1.000  H 
  H89      1.0000 0.01963  0.21116  0.43332  Biso   1.000  H 
  H90      1.0000 0.98017  0.13972  0.36153  Biso   1.000  H 
  B282     1.0000 0.00000  0.07190  0.86740  Biso   1.000  B 
  B283     1.0000 0.00000  0.11720  0.88280  Biso   1.000  B 
  B284     1.0000 0.00000  0.13260  0.92810  Biso   1.000  B 
  B285     1.0000 0.00000  0.15650  0.84350  Biso   1.000  B 
  B286     1.0000 0.00000  0.14470  0.79420  Biso   1.000  B 
  B287     1.0000 0.00000  0.20580  0.85530  Biso   1.000  B 
  B288     1.0000 0.00000  0.17950  0.75800  Biso   1.000  B 
  B289     1.0000 0.00000  0.11140  0.78510  Biso   1.000  B 
  B290     1.0000 0.00000  0.24200  0.82050  Biso   1.000  B 
  B291     1.0000 0.00000  0.21490  0.88860  Biso   1.000  B 
  B292     1.0000 0.00000  0.23070  0.76930  Biso   1.000  B 
  B293     1.0000 0.00000  0.26930  0.73070  Biso   1.000  B 
  B294     1.0000 0.00000  0.16950  0.72490  Biso   1.000  B 
  B295     1.0000 0.00000  0.25800  0.67950  Biso   1.000  B 
  B296     1.0000 0.00000  0.27510  0.83050  Biso   1.000  B 
  B297     1.0000 0.00000  0.32050  0.74200  Biso   1.000  B 
  B298     1.0000 0.00000  0.29420  0.64470  Biso   1.000  B 
  N10      1.0000 0.98371  0.20669  0.66080  Biso   1.000  N 
  B299     1.0000 0.00000  0.35530  0.70580  Biso   1.000  B 
  B300     1.0000 0.00000  0.33050  0.77510  Biso   1.000  B 
  B301     1.0000 0.00000  0.34350  0.65650  Biso   1.000  B 
  B302     1.0000 0.00000  0.38280  0.61720  Biso   1.000  B 
  B303     1.0000 0.00000  0.28510  0.61140  Biso   1.000  B 
  B304     1.0000 0.00000  0.38860  0.71490  Biso   1.000  B 
  B305     1.0000 0.00000  0.36740  0.57190  Biso   1.000  B 
  B306     1.0000 0.00000  0.42810  0.63260  Biso   1.000  B 
  H91      1.0000 0.95022  0.21057  0.64181  Biso   1.000  H 
  C46      1.0000 0.02253  0.18053  0.62979  Biso   1.000  C 
  C47      1.0000 0.07769  0.19505  0.63705  Biso   1.000  C 
  H92      1.0000 0.08621  0.21314  0.67294  Biso   1.000  H 
  C48      1.0000 0.09117  0.22614  0.59325  Biso   1.000  C 
  H93      1.0000 0.10099  0.16066  0.63315  Biso   1.000  H 
  C49      1.0000 0.05798  0.20953  0.55117  Biso   1.000  C 
  H94      1.0000 0.13156  0.22191  0.58405  Biso   1.000  H 
  H95      1.0000 0.08419  0.26529  0.60214  Biso   1.000  H 
  C50      1.0000 0.01296  0.18621  0.57439  Biso   1.000  C 
  H96      1.0000 0.07651  0.18382  0.52625  Biso   1.000  H 
  H97      1.0000 0.04778  0.24259  0.52937  Biso   1.000  H 
  H98      1.0000 0.00580  0.15002  0.55682  Biso   1.000  H 
  H99      1.0000 0.98037  0.21116  0.56668  Biso   1.000  H 
  H100     1.0000 0.01983  0.13972  0.63847  Biso   1.000  H 
  B307     1.0000 0.00000  0.92810  0.86740  Biso   1.000  B 
  B308     1.0000 0.00000  0.88280  0.88280  Biso   1.000  B 
  B309     1.0000 0.00000  0.86740  0.92810  Biso   1.000  B 
  B310     1.0000 0.00000  0.84350  0.84350  Biso   1.000  B 
  B311     1.0000 0.00000  0.85530  0.79420  Biso   1.000  B 
  B312     1.0000 0.00000  0.79420  0.85530  Biso   1.000  B 
  B313     1.0000 0.00000  0.82050  0.75800  Biso   1.000  B 
  B314     1.0000 0.00000  0.88860  0.78510  Biso   1.000  B 
  B315     1.0000 0.00000  0.75800  0.82050  Biso   1.000  B 
  B316     1.0000 0.00000  0.78510  0.88860  Biso   1.000  B 
  B317     1.0000 0.00000  0.76930  0.76930  Biso   1.000  B 
  B318     1.0000 0.00000  0.73070  0.73070  Biso   1.000  B 
  B319     1.0000 0.00000  0.83050  0.72490  Biso   1.000  B 
  B320     1.0000 0.00000  0.74200  0.67950  Biso   1.000  B 
  B321     1.0000 0.00000  0.72490  0.83050  Biso   1.000  B 
  B322     1.0000 0.00000  0.67950  0.74200  Biso   1.000  B 
  B323     1.0000 0.00000  0.70580  0.64470  Biso   1.000  B 
  N11      1.0000 0.01629  0.79331  0.66080  Biso   1.000  N 
  B324     1.0000 0.00000  0.64470  0.70580  Biso   1.000  B 
  B325     1.0000 0.00000  0.66950  0.77510  Biso   1.000  B 
  B326     1.0000 0.00000  0.65650  0.65650  Biso   1.000  B 
  B327     1.0000 0.00000  0.61720  0.61720  Biso   1.000  B 
  B328     1.0000 0.00000  0.71490  0.61140  Biso   1.000  B 
  B329     1.0000 0.00000  0.61140  0.71490  Biso   1.000  B 
  B330     1.0000 0.00000  0.63260  0.57190  Biso   1.000  B 
  B331     1.0000 0.00000  0.57190  0.63260  Biso   1.000  B 
  H101     1.0000 0.04979  0.78943  0.64181  Biso   1.000  H 
  C51      1.0000 0.97747  0.81947  0.62979  Biso   1.000  C 
  C52      1.0000 0.92231  0.80494  0.63705  Biso   1.000  C 
  H102     1.0000 0.91379  0.78686  0.67294  Biso   1.000  H 
  C53      1.0000 0.90883  0.77386  0.59325  Biso   1.000  C 
  H103     1.0000 0.89900  0.83934  0.63315  Biso   1.000  H 
  C54      1.0000 0.94202  0.79047  0.55117  Biso   1.000  C 
  H104     1.0000 0.86844  0.77809  0.58405  Biso   1.000  H 
  H105     1.0000 0.91581  0.73471  0.60214  Biso   1.000  H 
  C55      1.0000 0.98704  0.81379  0.57439  Biso   1.000  C 
  H106     1.0000 0.92349  0.81618  0.52625  Biso   1.000  H 
  H107     1.0000 0.95222  0.75741  0.52937  Biso   1.000  H 
  H108     1.0000 0.99420  0.84999  0.55682  Biso   1.000  H 
  H109     1.0000 0.01963  0.78884  0.56668  Biso   1.000  H 
  H110     1.0000 0.98017  0.86028  0.63847  Biso   1.000  H 
  B332     1.0000 0.00000  0.92810  0.13260  Biso   1.000  B 
  B333     1.0000 0.00000  0.88280  0.11720  Biso   1.000  B 
  B334     1.0000 0.00000  0.86740  0.07190  Biso   1.000  B 
  B335     1.0000 0.00000  0.84350  0.15650  Biso   1.000  B 
  B336     1.0000 0.00000  0.85530  0.20580  Biso   1.000  B 
  B337     1.0000 0.00000  0.79420  0.14470  Biso   1.000  B 
  B338     1.0000 0.00000  0.82050  0.24200  Biso   1.000  B 
  B339     1.0000 0.00000  0.88860  0.21490  Biso   1.000  B 
  B340     1.0000 0.00000  0.75800  0.17950  Biso   1.000  B 
  B341     1.0000 0.00000  0.78510  0.11140  Biso   1.000  B 
  B342     1.0000 0.00000  0.76930  0.23070  Biso   1.000  B 
  B343     1.0000 0.00000  0.73070  0.26930  Biso   1.000  B 
  B344     1.0000 0.00000  0.83050  0.27510  Biso   1.000  B 
  B345     1.0000 0.00000  0.74200  0.32050  Biso   1.000  B 
  B346     1.0000 0.00000  0.72490  0.16950  Biso   1.000  B 
  B347     1.0000 0.00000  0.67950  0.25800  Biso   1.000  B 
  B348     1.0000 0.00000  0.70580  0.35530  Biso   1.000  B 
  N12      1.0000 0.98371  0.79331  0.33920  Biso   1.000  N 
  B349     1.0000 0.00000  0.64470  0.29420  Biso   1.000  B 
  B350     1.0000 0.00000  0.66950  0.22490  Biso   1.000  B 
  B351     1.0000 0.00000  0.65650  0.34350  Biso   1.000  B 
  B352     1.0000 0.00000  0.61720  0.38280  Biso   1.000  B 
  B353     1.0000 0.00000  0.71490  0.38860  Biso   1.000  B 
  B354     1.0000 0.00000  0.61140  0.28510  Biso   1.000  B 
  B355     1.0000 0.00000  0.63260  0.42810  Biso   1.000  B 
  B356     1.0000 0.00000  0.57190  0.36740  Biso   1.000  B 
  H111     1.0000 0.95022  0.78943  0.35819  Biso   1.000  H 
  C56      1.0000 0.02253  0.81947  0.37021  Biso   1.000  C 
  C57      1.0000 0.07769  0.80494  0.36295  Biso   1.000  C 
  H112     1.0000 0.08621  0.78686  0.32706  Biso   1.000  H 
  C58      1.0000 0.09117  0.77386  0.40675  Biso   1.000  C 
  H113     1.0000 0.10099  0.83934  0.36685  Biso   1.000  H 
  C59      1.0000 0.05798  0.79047  0.44883  Biso   1.000  C 
  H114     1.0000 0.13156  0.77809  0.41595  Biso   1.000  H 
  H115     1.0000 0.08419  0.73471  0.39786  Biso   1.000  H 
  C60      1.0000 0.01296  0.81379  0.42561  Biso   1.000  C 
  H116     1.0000 0.07651  0.81618  0.47375  Biso   1.000  H 
  H117     1.0000 0.04778  0.75741  0.47063  Biso   1.000  H 
  H118     1.0000 0.00580  0.84999  0.44318  Biso   1.000  H 
  H119     1.0000 0.98037  0.78884  0.43332  Biso   1.000  H 
  H120     1.0000 0.01983  0.86028  0.36153  Biso   1.000  H 
  B357     1.0000 0.13260  0.50000  0.57190  Biso   1.000  B 
  B358     1.0000 0.11720  0.50000  0.61720  Biso   1.000  B 
  B359     1.0000 0.07190  0.50000  0.63260  Biso   1.000  B 
  B360     1.0000 0.15650  0.50000  0.65650  Biso   1.000  B 
  B361     1.0000 0.20580  0.50000  0.64470  Biso   1.000  B 
  B362     1.0000 0.14470  0.50000  0.70580  Biso   1.000  B 
  B363     1.0000 0.24200  0.50000  0.67950  Biso   1.000  B 
  B364     1.0000 0.21490  0.50000  0.61140  Biso   1.000  B 
  B365     1.0000 0.17950  0.50000  0.74200  Biso   1.000  B 
  B366     1.0000 0.11140  0.50000  0.71490  Biso   1.000  B 
  B367     1.0000 0.23070  0.50000  0.73070  Biso   1.000  B 
  B368     1.0000 0.26930  0.50000  0.76930  Biso   1.000  B 
  B369     1.0000 0.27510  0.50000  0.66950  Biso   1.000  B 
  B370     1.0000 0.32050  0.50000  0.75800  Biso   1.000  B 
  B371     1.0000 0.16950  0.50000  0.77510  Biso   1.000  B 
  B372     1.0000 0.25800  0.50000  0.82050  Biso   1.000  B 
  B373     1.0000 0.35530  0.50000  0.79420  Biso   1.000  B 
  N13      1.0000 0.34176  0.51551  0.70747  Biso   1.000  N 
  B374     1.0000 0.29420  0.50000  0.85530  Biso   1.000  B 
  B375     1.0000 0.22490  0.50000  0.83050  Biso   1.000  B 
  B376     1.0000 0.34350  0.50000  0.84350  Biso   1.000  B 
  B377     1.0000 0.38280  0.50000  0.88280  Biso   1.000  B 
  B378     1.0000 0.38860  0.50000  0.78510  Biso   1.000  B 
  B379     1.0000 0.28510  0.50000  0.88860  Biso   1.000  B 
  B380     1.0000 0.42810  0.50000  0.86740  Biso   1.000  B 
  B381     1.0000 0.36740  0.50000  0.92810  Biso   1.000  B 
  H121     1.0000 0.36884  0.54353  0.71190  Biso   1.000  H 
  C61      1.0000 0.36311  0.47678  0.67371  Biso   1.000  C 
  C62      1.0000 0.41789  0.46038  0.68009  Biso   1.000  C 
  H122     1.0000 0.43983  0.48766  0.70232  Biso   1.000  H 
  C63      1.0000 0.43959  0.45728  0.62603  Biso   1.000  C 
  H123     1.0000 0.42025  0.42309  0.69910  Biso   1.000  H 
  C64      1.0000 0.40450  0.48304  0.59069  Biso   1.000  C 
  H124     1.0000 0.43986  0.41813  0.61247  Biso   1.000  H 
  H125     1.0000 0.47706  0.47148  0.62467  Biso   1.000  H 
  C65      1.0000 0.36231  0.50179  0.62281  Biso   1.000  C 
  H126     1.0000 0.38934  0.45732  0.56175  Biso   1.000  H 
  H127     1.0000 0.42408  0.51489  0.57261  Biso   1.000  H 
  H128     1.0000 0.32645  0.49121  0.60418  Biso   1.000  H 
  H129     1.0000 0.36541  0.54332  0.62626  Biso   1.000  H 
  H130     1.0000 0.34007  0.44254  0.67238  Biso   1.000  H 
  B382     1.0000 0.86740  0.50000  0.57190  Biso   1.000  B 
  B383     1.0000 0.88280  0.50000  0.61720  Biso   1.000  B 
  B384     1.0000 0.92810  0.50000  0.63260  Biso   1.000  B 
  B385     1.0000 0.84350  0.50000  0.65650  Biso   1.000  B 
  B386     1.0000 0.79420  0.50000  0.64470  Biso   1.000  B 
  B387     1.0000 0.85530  0.50000  0.70580  Biso   1.000  B 
  B388     1.0000 0.75800  0.50000  0.67950  Biso   1.000  B 
  B389     1.0000 0.78510  0.50000  0.61140  Biso   1.000  B 
  B390     1.0000 0.82050  0.50000  0.74200  Biso   1.000  B 
  B391     1.0000 0.88860  0.50000  0.71490  Biso   1.000  B 
  B392     1.0000 0.76930  0.50000  0.73070  Biso   1.000  B 
  B393     1.0000 0.73070  0.50000  0.76930  Biso   1.000  B 
  B394     1.0000 0.72490  0.50000  0.66950  Biso   1.000  B 
  B395     1.0000 0.67950  0.50000  0.75800  Biso   1.000  B 
  B396     1.0000 0.83050  0.50000  0.77510  Biso   1.000  B 
  B397     1.0000 0.74200  0.50000  0.82050  Biso   1.000  B 
  B398     1.0000 0.64470  0.50000  0.79420  Biso   1.000  B 
  N14      1.0000 0.65824  0.48449  0.70747  Biso   1.000  N 
  B399     1.0000 0.70580  0.50000  0.85530  Biso   1.000  B 
  B400     1.0000 0.77510  0.50000  0.83050  Biso   1.000  B 
  B401     1.0000 0.65650  0.50000  0.84350  Biso   1.000  B 
  B402     1.0000 0.61720  0.50000  0.88280  Biso   1.000  B 
  B403     1.0000 0.61140  0.50000  0.78510  Biso   1.000  B 
  B404     1.0000 0.71490  0.50000  0.88860  Biso   1.000  B 
  B405     1.0000 0.57190  0.50000  0.86740  Biso   1.000  B 
  B406     1.0000 0.63260  0.50000  0.92810  Biso   1.000  B 
  H131     1.0000 0.63116  0.45647  0.71190  Biso   1.000  H 
  C66      1.0000 0.63689  0.52322  0.67371  Biso   1.000  C 
  C67      1.0000 0.58211  0.53962  0.68009  Biso   1.000  C 
  H132     1.0000 0.56017  0.51234  0.70232  Biso   1.000  H 
  C68      1.0000 0.56041  0.54272  0.62603  Biso   1.000  C 
  H133     1.0000 0.57975  0.57691  0.69910  Biso   1.000  H 
  C69      1.0000 0.59550  0.51696  0.59069  Biso   1.000  C 
  H134     1.0000 0.56014  0.58187  0.61247  Biso   1.000  H 
  H135     1.0000 0.52294  0.52852  0.62467  Biso   1.000  H 
  C70      1.0000 0.63769  0.49821  0.62281  Biso   1.000  C 
  H136     1.0000 0.61066  0.54268  0.56175  Biso   1.000  H 
  H137     1.0000 0.57592  0.48511  0.57261  Biso   1.000  H 
  H138     1.0000 0.67355  0.50879  0.60418  Biso   1.000  H 
  H139     1.0000 0.63459  0.45668  0.62626  Biso   1.000  H 
  H140     1.0000 0.65993  0.55746  0.67238  Biso   1.000  H 
  B407     1.0000 0.86740  0.50000  0.42810  Biso   1.000  B 
  B408     1.0000 0.88280  0.50000  0.38280  Biso   1.000  B 
  B409     1.0000 0.92810  0.50000  0.36740  Biso   1.000  B 
  B410     1.0000 0.84350  0.50000  0.34350  Biso   1.000  B 
  B411     1.0000 0.79420  0.50000  0.35530  Biso   1.000  B 
  B412     1.0000 0.85530  0.50000  0.29420  Biso   1.000  B 
  B413     1.0000 0.75800  0.50000  0.32050  Biso   1.000  B 
  B414     1.0000 0.78510  0.50000  0.38860  Biso   1.000  B 
  B415     1.0000 0.82050  0.50000  0.25800  Biso   1.000  B 
  B416     1.0000 0.88860  0.50000  0.28510  Biso   1.000  B 
  B417     1.0000 0.76930  0.50000  0.26930  Biso   1.000  B 
  B418     1.0000 0.73070  0.50000  0.23070  Biso   1.000  B 
  B419     1.0000 0.72490  0.50000  0.33050  Biso   1.000  B 
  B420     1.0000 0.67950  0.50000  0.24200  Biso   1.000  B 
  B421     1.0000 0.83050  0.50000  0.22490  Biso   1.000  B 
  B422     1.0000 0.74200  0.50000  0.17950  Biso   1.000  B 
  B423     1.0000 0.64470  0.50000  0.20580  Biso   1.000  B 
  N15      1.0000 0.65824  0.51551  0.29253  Biso   1.000  N 
  B424     1.0000 0.70580  0.50000  0.14470  Biso   1.000  B 
  B425     1.0000 0.77510  0.50000  0.16950  Biso   1.000  B 
  B426     1.0000 0.65650  0.50000  0.15650  Biso   1.000  B 
  B427     1.0000 0.61720  0.50000  0.11720  Biso   1.000  B 
  B428     1.0000 0.61140  0.50000  0.21490  Biso   1.000  B 
  B429     1.0000 0.71490  0.50000  0.11140  Biso   1.000  B 
  B430     1.0000 0.57190  0.50000  0.13260  Biso   1.000  B 
  B431     1.0000 0.63260  0.50000  0.07190  Biso   1.000  B 
  H141     1.0000 0.63116  0.54353  0.28810  Biso   1.000  H 
  C71      1.0000 0.63689  0.47678  0.32630  Biso   1.000  C 
  C72      1.0000 0.58211  0.46038  0.31991  Biso   1.000  C 
  H142     1.0000 0.56017  0.48766  0.29768  Biso   1.000  H 
  C73      1.0000 0.56041  0.45728  0.37397  Biso   1.000  C 
  H143     1.0000 0.57975  0.42309  0.30090  Biso   1.000  H 
  C74      1.0000 0.59550  0.48304  0.40931  Biso   1.000  C 
  H144     1.0000 0.56014  0.41813  0.38753  Biso   1.000  H 
  H145     1.0000 0.52294  0.47148  0.37533  Biso   1.000  H 
  C75      1.0000 0.63769  0.50179  0.37719  Biso   1.000  C 
  H146     1.0000 0.61066  0.45732  0.43825  Biso   1.000  H 
  H147     1.0000 0.57592  0.51489  0.42739  Biso   1.000  H 
  H148     1.0000 0.67355  0.49121  0.39582  Biso   1.000  H 
  H149     1.0000 0.63459  0.54332  0.37374  Biso   1.000  H 
  H150     1.0000 0.65993  0.44254  0.32762  Biso   1.000  H 
  B432     1.0000 0.13260  0.50000  0.42810  Biso   1.000  B 
  B433     1.0000 0.11720  0.50000  0.38280  Biso   1.000  B 
  B434     1.0000 0.07190  0.50000  0.36740  Biso   1.000  B 
  B435     1.0000 0.15650  0.50000  0.34350  Biso   1.000  B 
  B436     1.0000 0.20580  0.50000  0.35530  Biso   1.000  B 
  B437     1.0000 0.14470  0.50000  0.29420  Biso   1.000  B 
  B438     1.0000 0.24200  0.50000  0.32050  Biso   1.000  B 
  B439     1.0000 0.21490  0.50000  0.38860  Biso   1.000  B 
  B440     1.0000 0.17950  0.50000  0.25800  Biso   1.000  B 
  B441     1.0000 0.11140  0.50000  0.28510  Biso   1.000  B 
  B442     1.0000 0.23070  0.50000  0.26930  Biso   1.000  B 
  B443     1.0000 0.26930  0.50000  0.23070  Biso   1.000  B 
  B444     1.0000 0.27510  0.50000  0.33050  Biso   1.000  B 
  B445     1.0000 0.32050  0.50000  0.24200  Biso   1.000  B 
  B446     1.0000 0.16950  0.50000  0.22490  Biso   1.000  B 
  B447     1.0000 0.25800  0.50000  0.17950  Biso   1.000  B 
  B448     1.0000 0.35530  0.50000  0.20580  Biso   1.000  B 
  N16      1.0000 0.34176  0.48449  0.29253  Biso   1.000  N 
  B449     1.0000 0.29420  0.50000  0.14470  Biso   1.000  B 
  B450     1.0000 0.22490  0.50000  0.16950  Biso   1.000  B 
  B451     1.0000 0.34350  0.50000  0.15650  Biso   1.000  B 
  B452     1.0000 0.38280  0.50000  0.11720  Biso   1.000  B 
  B453     1.0000 0.38860  0.50000  0.21490  Biso   1.000  B 
  B454     1.0000 0.28510  0.50000  0.11140  Biso   1.000  B 
  B455     1.0000 0.42810  0.50000  0.13260  Biso   1.000  B 
  B456     1.0000 0.36740  0.50000  0.07190  Biso   1.000  B 
  H151     1.0000 0.36884  0.45647  0.28810  Biso   1.000  H 
  C76      1.0000 0.36311  0.52322  0.32630  Biso   1.000  C 
  C77      1.0000 0.41789  0.53962  0.31991  Biso   1.000  C 
  H152     1.0000 0.43983  0.51234  0.29768  Biso   1.000  H 
  C78      1.0000 0.43959  0.54272  0.37397  Biso   1.000  C 
  H153     1.0000 0.42025  0.57691  0.30090  Biso   1.000  H 
  C79      1.0000 0.40450  0.51696  0.40931  Biso   1.000  C 
  H154     1.0000 0.43986  0.58187  0.38753  Biso   1.000  H 
  H155     1.0000 0.47706  0.52852  0.37533  Biso   1.000  H 
  C80      1.0000 0.36231  0.49821  0.37719  Biso   1.000  C 
  H156     1.0000 0.38934  0.54268  0.43825  Biso   1.000  H 
  H157     1.0000 0.42408  0.48511  0.42739  Biso   1.000  H 
  H158     1.0000 0.32645  0.50879  0.39582  Biso   1.000  H 
  H159     1.0000 0.36541  0.45668  0.37374  Biso   1.000  H 
  H160     1.0000 0.34007  0.55746  0.32762  Biso   1.000  H 
  B457     1.0000 0.07190  0.63260  0.50000  Biso   1.000  B 
  B458     1.0000 0.11720  0.61720  0.50000  Biso   1.000  B 
  B459     1.0000 0.13260  0.57190  0.50000  Biso   1.000  B 
  B460     1.0000 0.15650  0.65650  0.50000  Biso   1.000  B 
  B461     1.0000 0.14470  0.70580  0.50000  Biso   1.000  B 
  B462     1.0000 0.20580  0.64470  0.50000  Biso   1.000  B 
  B463     1.0000 0.17950  0.74200  0.50000  Biso   1.000  B 
  B464     1.0000 0.11140  0.71490  0.50000  Biso   1.000  B 
  B465     1.0000 0.24200  0.67950  0.50000  Biso   1.000  B 
  B466     1.0000 0.21490  0.61140  0.50000  Biso   1.000  B 
  B467     1.0000 0.23070  0.73070  0.50000  Biso   1.000  B 
  B468     1.0000 0.26930  0.76930  0.50000  Biso   1.000  B 
  B469     1.0000 0.16950  0.77510  0.50000  Biso   1.000  B 
  B470     1.0000 0.25800  0.82050  0.50000  Biso   1.000  B 
  B471     1.0000 0.27510  0.66950  0.50000  Biso   1.000  B 
  B472     1.0000 0.32050  0.75800  0.50000  Biso   1.000  B 
  B473     1.0000 0.29420  0.85530  0.50000  Biso   1.000  B 
  N17      1.0000 0.20642  0.84253  0.50381  Biso   1.000  N 
  B474     1.0000 0.35530  0.79420  0.50000  Biso   1.000  B 
  B475     1.0000 0.33050  0.72490  0.50000  Biso   1.000  B 
  B476     1.0000 0.34350  0.84350  0.50000  Biso   1.000  B 
  B477     1.0000 0.38280  0.88280  0.50000  Biso   1.000  B 
  B478     1.0000 0.28510  0.88860  0.50000  Biso   1.000  B 
  B479     1.0000 0.38860  0.78510  0.50000  Biso   1.000  B 
  B480     1.0000 0.36740  0.92810  0.50000  Biso   1.000  B 
  B481     1.0000 0.42810  0.86740  0.50000  Biso   1.000  B 
  H161     1.0000 0.20427  0.86081  0.53736  Biso   1.000  H 
  C81      1.0000 0.18296  0.87011  0.46307  Biso   1.000  C 
  C82      1.0000 0.21159  0.86382  0.41532  Biso   1.000  C 
  H162     1.0000 0.25143  0.86668  0.42145  Biso   1.000  H 
  C83      1.0000 0.19991  0.90937  0.38574  Biso   1.000  C 
  H163     1.0000 0.20669  0.82962  0.39374  Biso   1.000  H 
  C84      1.0000 0.18974  0.95240  0.42174  Biso   1.000  C 
  H164     1.0000 0.16507  0.90249  0.36425  Biso   1.000  H 
  H165     1.0000 0.23213  0.91575  0.36010  Biso   1.000  H 
  C85      1.0000 0.17546  0.92694  0.47151  Biso   1.000  C 
  H166     1.0000 0.15664  0.97620  0.40669  Biso   1.000  H 
  H167     1.0000 0.22122  0.97749  0.42927  Biso   1.000  H 
  H168     1.0000 0.13558  0.93393  0.48010  Biso   1.000  H 
  H169     1.0000 0.19750  0.94230  0.50318  Biso   1.000  H 
  H170     1.0000 0.14632  0.85348  0.46019  Biso   1.000  H 
  B482     1.0000 0.07190  0.36740  0.50000  Biso   1.000  B 
  B483     1.0000 0.11720  0.38280  0.50000  Biso   1.000  B 
  B484     1.0000 0.13260  0.42810  0.50000  Biso   1.000  B 
  B485     1.0000 0.15650  0.34350  0.50000  Biso   1.000  B 
  B486     1.0000 0.14470  0.29420  0.50000  Biso   1.000  B 
  B487     1.0000 0.20580  0.35530  0.50000  Biso   1.000  B 
  B488     1.0000 0.17950  0.25800  0.50000  Biso   1.000  B 
  B489     1.0000 0.11140  0.28510  0.50000  Biso   1.000  B 
  B490     1.0000 0.24200  0.32050  0.50000  Biso   1.000  B 
  B491     1.0000 0.21490  0.38860  0.50000  Biso   1.000  B 
  B492     1.0000 0.23070  0.26930  0.50000  Biso   1.000  B 
  B493     1.0000 0.26930  0.23070  0.50000  Biso   1.000  B 
  B494     1.0000 0.16950  0.22490  0.50000  Biso   1.000  B 
  B495     1.0000 0.25800  0.17950  0.50000  Biso   1.000  B 
  B496     1.0000 0.27510  0.33050  0.50000  Biso   1.000  B 
  B497     1.0000 0.32050  0.24200  0.50000  Biso   1.000  B 
  B498     1.0000 0.29420  0.14470  0.50000  Biso   1.000  B 
  N18      1.0000 0.20642  0.15747  0.49619  Biso   1.000  N 
  B499     1.0000 0.35530  0.20580  0.50000  Biso   1.000  B 
  B500     1.0000 0.33050  0.27510  0.50000  Biso   1.000  B 
  B501     1.0000 0.34350  0.15650  0.50000  Biso   1.000  B 
  B502     1.0000 0.38280  0.11720  0.50000  Biso   1.000  B 
  B503     1.0000 0.28510  0.11140  0.50000  Biso   1.000  B 
  B504     1.0000 0.38860  0.21490  0.50000  Biso   1.000  B 
  B505     1.0000 0.36740  0.07190  0.50000  Biso   1.000  B 
  B506     1.0000 0.42810  0.13260  0.50000  Biso   1.000  B 
  H171     1.0000 0.20427  0.13919  0.46264  Biso   1.000  H 
  C86      1.0000 0.18296  0.12989  0.53693  Biso   1.000  C 
  C87      1.0000 0.21159  0.13618  0.58468  Biso   1.000  C 
  H172     1.0000 0.25143  0.13332  0.57855  Biso   1.000  H 
  C88      1.0000 0.19991  0.09063  0.61426  Biso   1.000  C 
  H173     1.0000 0.20669  0.17038  0.60626  Biso   1.000  H 
  C89      1.0000 0.18974  0.04760  0.57826  Biso   1.000  C 
  H174     1.0000 0.16507  0.09751  0.63575  Biso   1.000  H 
  H175     1.0000 0.23213  0.08425  0.63991  Biso   1.000  H 
  C90      1.0000 0.17546  0.07306  0.52849  Biso   1.000  C 
  H176     1.0000 0.15664  0.02380  0.59331  Biso   1.000  H 
  H177     1.0000 0.22122  0.02251  0.57073  Biso   1.000  H 
  H178     1.0000 0.13558  0.06607  0.51990  Biso   1.000  H 
  H179     1.0000 0.19750  0.05770  0.49682  Biso   1.000  H 
  H180     1.0000 0.14632  0.14652  0.53981  Biso   1.000  H 
  B507     1.0000 0.92810  0.36740  0.50000  Biso   1.000  B 
  B508     1.0000 0.88280  0.38280  0.50000  Biso   1.000  B 
  B509     1.0000 0.86740  0.42810  0.50000  Biso   1.000  B 
  B510     1.0000 0.84350  0.34350  0.50000  Biso   1.000  B 
  B511     1.0000 0.85530  0.29420  0.50000  Biso   1.000  B 
  B512     1.0000 0.79420  0.35530  0.50000  Biso   1.000  B 
  B513     1.0000 0.82050  0.25800  0.50000  Biso   1.000  B 
  B514     1.0000 0.88860  0.28510  0.50000  Biso   1.000  B 
  B515     1.0000 0.75800  0.32050  0.50000  Biso   1.000  B 
  B516     1.0000 0.78510  0.38860  0.50000  Biso   1.000  B 
  B517     1.0000 0.76930  0.26930  0.50000  Biso   1.000  B 
  B518     1.0000 0.73070  0.23070  0.50000  Biso   1.000  B 
  B519     1.0000 0.83050  0.22490  0.50000  Biso   1.000  B 
  B520     1.0000 0.74200  0.17950  0.50000  Biso   1.000  B 
  B521     1.0000 0.72490  0.33050  0.50000  Biso   1.000  B 
  B522     1.0000 0.67950  0.24200  0.50000  Biso   1.000  B 
  B523     1.0000 0.70580  0.14470  0.50000  Biso   1.000  B 
  N19      1.0000 0.79358  0.15747  0.50381  Biso   1.000  N 
  B524     1.0000 0.64470  0.20580  0.50000  Biso   1.000  B 
  B525     1.0000 0.66950  0.27510  0.50000  Biso   1.000  B 
  B526     1.0000 0.65650  0.15650  0.50000  Biso   1.000  B 
  B527     1.0000 0.61720  0.11720  0.50000  Biso   1.000  B 
  B528     1.0000 0.71490  0.11140  0.50000  Biso   1.000  B 
  B529     1.0000 0.61140  0.21490  0.50000  Biso   1.000  B 
  B530     1.0000 0.63260  0.07190  0.50000  Biso   1.000  B 
  B531     1.0000 0.57190  0.13260  0.50000  Biso   1.000  B 
  H181     1.0000 0.79573  0.13919  0.53736  Biso   1.000  H 
  C91      1.0000 0.81704  0.12989  0.46307  Biso   1.000  C 
  C92      1.0000 0.78841  0.13618  0.41532  Biso   1.000  C 
  H182     1.0000 0.74857  0.13332  0.42145  Biso   1.000  H 
  C93      1.0000 0.80009  0.09063  0.38574  Biso   1.000  C 
  H183     1.0000 0.79331  0.17038  0.39374  Biso   1.000  H 
  C94      1.0000 0.81025  0.04760  0.42174  Biso   1.000  C 
  H184     1.0000 0.83493  0.09751  0.36425  Biso   1.000  H 
  H185     1.0000 0.76787  0.08425  0.36010  Biso   1.000  H 
  C95      1.0000 0.82454  0.07306  0.47151  Biso   1.000  C 
  H186     1.0000 0.84336  0.02380  0.40669  Biso   1.000  H 
  H187     1.0000 0.77878  0.02251  0.42927  Biso   1.000  H 
  H188     1.0000 0.86443  0.06607  0.48010  Biso   1.000  H 
  H189     1.0000 0.80249  0.05770  0.50318  Biso   1.000  H 
  H190     1.0000 0.85368  0.14652  0.46019  Biso   1.000  H 
  B532     1.0000 0.92810  0.63260  0.50000  Biso   1.000  B 
  B533     1.0000 0.88280  0.61720  0.50000  Biso   1.000  B 
  B534     1.0000 0.86740  0.57190  0.50000  Biso   1.000  B 
  B535     1.0000 0.84350  0.65650  0.50000  Biso   1.000  B 
  B536     1.0000 0.85530  0.70580  0.50000  Biso   1.000  B 
  B537     1.0000 0.79420  0.64470  0.50000  Biso   1.000  B 
  B538     1.0000 0.82050  0.74200  0.50000  Biso   1.000  B 
  B539     1.0000 0.88860  0.71490  0.50000  Biso   1.000  B 
  B540     1.0000 0.75800  0.67950  0.50000  Biso   1.000  B 
  B541     1.0000 0.78510  0.61140  0.50000  Biso   1.000  B 
  B542     1.0000 0.76930  0.73070  0.50000  Biso   1.000  B 
  B543     1.0000 0.73070  0.76930  0.50000  Biso   1.000  B 
  B544     1.0000 0.83050  0.77510  0.50000  Biso   1.000  B 
  B545     1.0000 0.74200  0.82050  0.50000  Biso   1.000  B 
  B546     1.0000 0.72490  0.66950  0.50000  Biso   1.000  B 
  B547     1.0000 0.67950  0.75800  0.50000  Biso   1.000  B 
  B548     1.0000 0.70580  0.85530  0.50000  Biso   1.000  B 
  N20      1.0000 0.79358  0.84253  0.49619  Biso   1.000  N 
  B549     1.0000 0.64470  0.79420  0.50000  Biso   1.000  B 
  B550     1.0000 0.66950  0.72490  0.50000  Biso   1.000  B 
  B551     1.0000 0.65650  0.84350  0.50000  Biso   1.000  B 
  B552     1.0000 0.61720  0.88280  0.50000  Biso   1.000  B 
  B553     1.0000 0.71490  0.88860  0.50000  Biso   1.000  B 
  B554     1.0000 0.61140  0.78510  0.50000  Biso   1.000  B 
  B555     1.0000 0.63260  0.92810  0.50000  Biso   1.000  B 
  B556     1.0000 0.57190  0.86740  0.50000  Biso   1.000  B 
  H191     1.0000 0.79573  0.86081  0.46264  Biso   1.000  H 
  C96      1.0000 0.81704  0.87011  0.53693  Biso   1.000  C 
  C97      1.0000 0.78841  0.86382  0.58468  Biso   1.000  C 
  H192     1.0000 0.74857  0.86668  0.57855  Biso   1.000  H 
  C98      1.0000 0.80009  0.90937  0.61426  Biso   1.000  C 
  H193     1.0000 0.79331  0.82962  0.60626  Biso   1.000  H 
  C99      1.0000 0.81025  0.95240  0.57826  Biso   1.000  C 
  H194     1.0000 0.83493  0.90249  0.63575  Biso   1.000  H 
  H195     1.0000 0.76787  0.91575  0.63991  Biso   1.000  H 
  C100     1.0000 0.82454  0.92694  0.52849  Biso   1.000  C 
  H196     1.0000 0.84336  0.97620  0.59331  Biso   1.000  H 
  H197     1.0000 0.77878  0.97749  0.57073  Biso   1.000  H 
  H198     1.0000 0.86443  0.93393  0.51990  Biso   1.000  H 
  H199     1.0000 0.80249  0.94230  0.49682  Biso   1.000  H 
  H200     1.0000 0.85368  0.85348  0.53981  Biso   1.000  H 
  B557     1.0000 0.50000  0.07190  0.63260  Biso   1.000  B 
  B558     1.0000 0.50000  0.11720  0.61720  Biso   1.000  B 
  B559     1.0000 0.50000  0.13260  0.57190  Biso   1.000  B 
  B560     1.0000 0.50000  0.15650  0.65650  Biso   1.000  B 
  B561     1.0000 0.50000  0.14470  0.70580  Biso   1.000  B 
  B562     1.0000 0.50000  0.20580  0.64470  Biso   1.000  B 
  B563     1.0000 0.50000  0.17950  0.74200  Biso   1.000  B 
  B564     1.0000 0.50000  0.11140  0.71490  Biso   1.000  B 
  B565     1.0000 0.50000  0.24200  0.67950  Biso   1.000  B 
  B566     1.0000 0.50000  0.21490  0.61140  Biso   1.000  B 
  B567     1.0000 0.50000  0.23070  0.73070  Biso   1.000  B 
  B568     1.0000 0.50000  0.26930  0.76930  Biso   1.000  B 
  B569     1.0000 0.50000  0.16950  0.77510  Biso   1.000  B 
  B570     1.0000 0.50000  0.25800  0.82050  Biso   1.000  B 
  B571     1.0000 0.50000  0.27510  0.66950  Biso   1.000  B 
  B572     1.0000 0.50000  0.32050  0.75800  Biso   1.000  B 
  B573     1.0000 0.50000  0.29420  0.85530  Biso   1.000  B 
  N21      1.0000 0.51485  0.20716  0.84083  Biso   1.000  N 
  B574     1.0000 0.50000  0.35530  0.79420  Biso   1.000  B 
  B575     1.0000 0.50000  0.33050  0.72490  Biso   1.000  B 
  B576     1.0000 0.50000  0.34350  0.84350  Biso   1.000  B 
  B577     1.0000 0.50000  0.38280  0.88280  Biso   1.000  B 
  B578     1.0000 0.50000  0.28510  0.88860  Biso   1.000  B 
  B579     1.0000 0.50000  0.38860  0.78510  Biso   1.000  B 
  B580     1.0000 0.50000  0.36740  0.92810  Biso   1.000  B 
  B581     1.0000 0.50000  0.42810  0.86740  Biso   1.000  B 
  H201     1.0000 0.54723  0.21041  0.86250  Biso   1.000  H 
  C101     1.0000 0.47435  0.17836  0.86715  Biso   1.000  C 
  C102     1.0000 0.42206  0.20311  0.86692  Biso   1.000  C 
  H202     1.0000 0.42357  0.24246  0.85860  Biso   1.000  H 
  C103     1.0000 0.40124  0.19893  0.91929  Biso   1.000  C 
  H203     1.0000 0.39691  0.18589  0.83862  Biso   1.000  H 
  C104     1.0000 0.43562  0.16773  0.94874  Biso   1.000  C 
  H204     1.0000 0.36330  0.18088  0.91736  Biso   1.000  H 
  H205     1.0000 0.39619  0.23605  0.93588  Biso   1.000  H 
  C105     1.0000 0.48553  0.16579  0.92196  Biso   1.000  C 
  H206     1.0000 0.42055  0.12882  0.95183  Biso   1.000  H 
  H207     1.0000 0.43801  0.18456  0.98630  Biso   1.000  H 
  H208     1.0000 0.50822  0.13106  0.92801  Biso   1.000  H 
  H209     1.0000 0.50736  0.19610  0.93966  Biso   1.000  H 
  H210     1.0000 0.47110  0.14033  0.85013  Biso   1.000  H 
  B582     1.0000 0.50000  0.07190  0.36740  Biso   1.000  B 
  B583     1.0000 0.50000  0.11720  0.38280  Biso   1.000  B 
  B584     1.0000 0.50000  0.13260  0.42810  Biso   1.000  B 
  B585     1.0000 0.50000  0.15650  0.34350  Biso   1.000  B 
  B586     1.0000 0.50000  0.14470  0.29420  Biso   1.000  B 
  B587     1.0000 0.50000  0.20580  0.35530  Biso   1.000  B 
  B588     1.0000 0.50000  0.17950  0.25800  Biso   1.000  B 
  B589     1.0000 0.50000  0.11140  0.28510  Biso   1.000  B 
  B590     1.0000 0.50000  0.24200  0.32050  Biso   1.000  B 
  B591     1.0000 0.50000  0.21490  0.38860  Biso   1.000  B 
  B592     1.0000 0.50000  0.23070  0.26930  Biso   1.000  B 
  B593     1.0000 0.50000  0.26930  0.23070  Biso   1.000  B 
  B594     1.0000 0.50000  0.16950  0.22490  Biso   1.000  B 
  B595     1.0000 0.50000  0.25800  0.17950  Biso   1.000  B 
  B596     1.0000 0.50000  0.27510  0.33050  Biso   1.000  B 
  B597     1.0000 0.50000  0.32050  0.24200  Biso   1.000  B 
  B598     1.0000 0.50000  0.29420  0.14470  Biso   1.000  B 
  N22      1.0000 0.48515  0.20716  0.15917  Biso   1.000  N 
  B599     1.0000 0.50000  0.35530  0.20580  Biso   1.000  B 
  B600     1.0000 0.50000  0.33050  0.27510  Biso   1.000  B 
  B601     1.0000 0.50000  0.34350  0.15650  Biso   1.000  B 
  B602     1.0000 0.50000  0.38280  0.11720  Biso   1.000  B 
  B603     1.0000 0.50000  0.28510  0.11140  Biso   1.000  B 
  B604     1.0000 0.50000  0.38860  0.21490  Biso   1.000  B 
  B605     1.0000 0.50000  0.36740  0.07190  Biso   1.000  B 
  B606     1.0000 0.50000  0.42810  0.13260  Biso   1.000  B 
  H211     1.0000 0.45277  0.21041  0.13750  Biso   1.000  H 
  C106     1.0000 0.52565  0.17836  0.13284  Biso   1.000  C 
  C107     1.0000 0.57794  0.20311  0.13308  Biso   1.000  C 
  H212     1.0000 0.57643  0.24246  0.14140  Biso   1.000  H 
  C108     1.0000 0.59876  0.19893  0.08071  Biso   1.000  C 
  H213     1.0000 0.60309  0.18589  0.16138  Biso   1.000  H 
  C109     1.0000 0.56438  0.16773  0.05126  Biso   1.000  C 
  H214     1.0000 0.63670  0.18088  0.08264  Biso   1.000  H 
  H215     1.0000 0.60381  0.23605  0.06412  Biso   1.000  H 
  C110     1.0000 0.51447  0.16579  0.07804  Biso   1.000  C 
  H216     1.0000 0.57945  0.12882  0.04817  Biso   1.000  H 
  H217     1.0000 0.56199  0.18456  0.01370  Biso   1.000  H 
  H218     1.0000 0.49178  0.13106  0.07199  Biso   1.000  H 
  H219     1.0000 0.49264  0.19610  0.06034  Biso   1.000  H 
  H220     1.0000 0.52890  0.14033  0.14987  Biso   1.000  H 
  B607     1.0000 0.50000  0.92810  0.36740  Biso   1.000  B 
  B608     1.0000 0.50000  0.88280  0.38280  Biso   1.000  B 
  B609     1.0000 0.50000  0.86740  0.42810  Biso   1.000  B 
  B610     1.0000 0.50000  0.84350  0.34350  Biso   1.000  B 
  B611     1.0000 0.50000  0.85530  0.29420  Biso   1.000  B 
  B612     1.0000 0.50000  0.79420  0.35530  Biso   1.000  B 
  B613     1.0000 0.50000  0.82050  0.25800  Biso   1.000  B 
  B614     1.0000 0.50000  0.88860  0.28510  Biso   1.000  B 
  B615     1.0000 0.50000  0.75800  0.32050  Biso   1.000  B 
  B616     1.0000 0.50000  0.78510  0.38860  Biso   1.000  B 
  B617     1.0000 0.50000  0.76930  0.26930  Biso   1.000  B 
  B618     1.0000 0.50000  0.73070  0.23070  Biso   1.000  B 
  B619     1.0000 0.50000  0.83050  0.22490  Biso   1.000  B 
  B620     1.0000 0.50000  0.74200  0.17950  Biso   1.000  B 
  B621     1.0000 0.50000  0.72490  0.33050  Biso   1.000  B 
  B622     1.0000 0.50000  0.67950  0.24200  Biso   1.000  B 
  B623     1.0000 0.50000  0.70580  0.14470  Biso   1.000  B 
  N23      1.0000 0.51485  0.79284  0.15917  Biso   1.000  N 
  B624     1.0000 0.50000  0.64470  0.20580  Biso   1.000  B 
  B625     1.0000 0.50000  0.66950  0.27510  Biso   1.000  B 
  B626     1.0000 0.50000  0.65650  0.15650  Biso   1.000  B 
  B627     1.0000 0.50000  0.61720  0.11720  Biso   1.000  B 
  B628     1.0000 0.50000  0.71490  0.11140  Biso   1.000  B 
  B629     1.0000 0.50000  0.61140  0.21490  Biso   1.000  B 
  B630     1.0000 0.50000  0.63260  0.07190  Biso   1.000  B 
  B631     1.0000 0.50000  0.57190  0.13260  Biso   1.000  B 
  H221     1.0000 0.54723  0.78959  0.13750  Biso   1.000  H 
  C111     1.0000 0.47435  0.82164  0.13284  Biso   1.000  C 
  C112     1.0000 0.42206  0.79689  0.13308  Biso   1.000  C 
  H222     1.0000 0.42357  0.75754  0.14140  Biso   1.000  H 
  C113     1.0000 0.40124  0.80107  0.08071  Biso   1.000  C 
  H223     1.0000 0.39691  0.81411  0.16138  Biso   1.000  H 
  C114     1.0000 0.43562  0.83227  0.05126  Biso   1.000  C 
  H224     1.0000 0.36330  0.81912  0.08264  Biso   1.000  H 
  H225     1.0000 0.39619  0.76395  0.06412  Biso   1.000  H 
  C115     1.0000 0.48553  0.83421  0.07804  Biso   1.000  C 
  H226     1.0000 0.42055  0.87118  0.04817  Biso   1.000  H 
  H227     1.0000 0.43801  0.81544  0.01370  Biso   1.000  H 
  H228     1.0000 0.50822  0.86894  0.07199  Biso   1.000  H 
  H229     1.0000 0.50736  0.80390  0.06034  Biso   1.000  H 
  H230     1.0000 0.47110  0.85967  0.14987  Biso   1.000  H 
  B632     1.0000 0.50000  0.92810  0.63260  Biso   1.000  B 
  B633     1.0000 0.50000  0.88280  0.61720  Biso   1.000  B 
  B634     1.0000 0.50000  0.86740  0.57190  Biso   1.000  B 
  B635     1.0000 0.50000  0.84350  0.65650  Biso   1.000  B 
  B636     1.0000 0.50000  0.85530  0.70580  Biso   1.000  B 
  B637     1.0000 0.50000  0.79420  0.64470  Biso   1.000  B 
  B638     1.0000 0.50000  0.82050  0.74200  Biso   1.000  B 
  B639     1.0000 0.50000  0.88860  0.71490  Biso   1.000  B 
  B640     1.0000 0.50000  0.75800  0.67950  Biso   1.000  B 
  B641     1.0000 0.50000  0.78510  0.61140  Biso   1.000  B 
  B642     1.0000 0.50000  0.76930  0.73070  Biso   1.000  B 
  B643     1.0000 0.50000  0.73070  0.76930  Biso   1.000  B 
  B644     1.0000 0.50000  0.83050  0.77510  Biso   1.000  B 
  B645     1.0000 0.50000  0.74200  0.82050  Biso   1.000  B 
  B646     1.0000 0.50000  0.72490  0.66950  Biso   1.000  B 
  B647     1.0000 0.50000  0.67950  0.75800  Biso   1.000  B 
  B648     1.0000 0.50000  0.70580  0.85530  Biso   1.000  B 
  N24      1.0000 0.48515  0.79284  0.84083  Biso   1.000  N 
  B649     1.0000 0.50000  0.64470  0.79420  Biso   1.000  B 
  B650     1.0000 0.50000  0.66950  0.72490  Biso   1.000  B 
  B651     1.0000 0.50000  0.65650  0.84350  Biso   1.000  B 
  B652     1.0000 0.50000  0.61720  0.88280  Biso   1.000  B 
  B653     1.0000 0.50000  0.71490  0.88860  Biso   1.000  B 
  B654     1.0000 0.50000  0.61140  0.78510  Biso   1.000  B 
  B655     1.0000 0.50000  0.63260  0.92810  Biso   1.000  B 
  B656     1.0000 0.50000  0.57190  0.86740  Biso   1.000  B 
  H231     1.0000 0.45277  0.78959  0.86250  Biso   1.000  H 
  C116     1.0000 0.52565  0.82164  0.86715  Biso   1.000  C 
  C117     1.0000 0.57794  0.79689  0.86692  Biso   1.000  C 
  H232     1.0000 0.57643  0.75754  0.85860  Biso   1.000  H 
  C118     1.0000 0.59876  0.80107  0.91929  Biso   1.000  C 
  H233     1.0000 0.60309  0.81411  0.83862  Biso   1.000  H 
  C119     1.0000 0.56438  0.83227  0.94874  Biso   1.000  C 
  H234     1.0000 0.63670  0.81912  0.91736  Biso   1.000  H 
  H235     1.0000 0.60381  0.76395  0.93588  Biso   1.000  H 
  C120     1.0000 0.51447  0.83421  0.92196  Biso   1.000  C 
  H236     1.0000 0.57945  0.87118  0.95183  Biso   1.000  H 
  H237     1.0000 0.56199  0.81544  0.98630  Biso   1.000  H 
  H238     1.0000 0.49178  0.86894  0.92801  Biso   1.000  H 
  H239     1.0000 0.49264  0.80390  0.93966  Biso   1.000  H 
  H240     1.0000 0.52890  0.85967  0.85013  Biso   1.000  H 
