data_image0
_cell_length_a       26.896
_cell_length_b       26.896
_cell_length_c       26.896
_cell_angle_alpha    90
_cell_angle_beta     90
_cell_angle_gamma    90

_symmetry_space_group_name_H-M    "P 1"
_symmetry_int_tables_number       1

loop_
  _symmetry_equiv_pos_as_xyz
  'x, y, z'

loop_
  _atom_site_label
  _atom_site_occupancy
  _atom_site_fract_x
  _atom_site_fract_y
  _atom_site_fract_z
  _atom_site_thermal_displace_type
  _atom_site_B_iso_or_equiv
  _atom_site_type_symbol
  B1       1.0000 0.09204  0.00000  0.00000  Biso   1.000  B 
  B2       1.0000 0.90796  0.00000  0.00000  Biso   1.000  B 
  B3       1.0000 0.00000  0.09204  0.00000  Biso   1.000  B 
  B4       1.0000 0.00000  0.90796  0.00000  Biso   1.000  B 
  B5       1.0000 0.00000  0.00000  0.09204  Biso   1.000  B 
  B6       1.0000 0.00000  0.00000  0.90796  Biso   1.000  B 
  B7       1.0000 0.09204  0.50000  0.50000  Biso   1.000  B 
  B8       1.0000 0.90796  0.50000  0.50000  Biso   1.000  B 
  B9       1.0000 0.00000  0.59204  0.50000  Biso   1.000  B 
  B10      1.0000 0.00000  0.40796  0.50000  Biso   1.000  B 
  B11      1.0000 0.00000  0.50000  0.59204  Biso   1.000  B 
  B12      1.0000 0.00000  0.50000  0.40796  Biso   1.000  B 
  B13      1.0000 0.59204  0.00000  0.50000  Biso   1.000  B 
  B14      1.0000 0.40796  0.00000  0.50000  Biso   1.000  B 
  B15      1.0000 0.50000  0.09204  0.50000  Biso   1.000  B 
  B16      1.0000 0.50000  0.90796  0.50000  Biso   1.000  B 
  B17      1.0000 0.50000  0.00000  0.59204  Biso   1.000  B 
  B18      1.0000 0.50000  0.00000  0.40796  Biso   1.000  B 
  B19      1.0000 0.59204  0.50000  0.00000  Biso   1.000  B 
  B20      1.0000 0.40796  0.50000  0.00000  Biso   1.000  B 
  B21      1.0000 0.50000  0.59204  0.00000  Biso   1.000  B 
  B22      1.0000 0.50000  0.40796  0.00000  Biso   1.000  B 
  B23      1.0000 0.50000  0.50000  0.09204  Biso   1.000  B 
  B24      1.0000 0.50000  0.50000  0.90796  Biso   1.000  B 
  B25      1.0000 0.04540  0.04540  0.04540  Biso   1.000  B 
  B26      1.0000 0.95460  0.95460  0.04540  Biso   1.000  B 
  B27      1.0000 0.95460  0.04540  0.95460  Biso   1.000  B 
  B28      1.0000 0.04540  0.95460  0.95460  Biso   1.000  B 
  B29      1.0000 0.04540  0.04540  0.95460  Biso   1.000  B 
  B30      1.0000 0.95460  0.95460  0.95460  Biso   1.000  B 
  B31      1.0000 0.04540  0.95460  0.04540  Biso   1.000  B 
  B32      1.0000 0.95460  0.04540  0.04540  Biso   1.000  B 
  B33      1.0000 0.04540  0.54540  0.54540  Biso   1.000  B 
  B34      1.0000 0.95460  0.45460  0.54540  Biso   1.000  B 
  B35      1.0000 0.95460  0.54540  0.45460  Biso   1.000  B 
  B36      1.0000 0.04540  0.45460  0.45460  Biso   1.000  B 
  B37      1.0000 0.04540  0.54540  0.45460  Biso   1.000  B 
  B38      1.0000 0.95460  0.45460  0.45460  Biso   1.000  B 
  B39      1.0000 0.04540  0.45460  0.54540  Biso   1.000  B 
  B40      1.0000 0.95460  0.54540  0.54540  Biso   1.000  B 
  B41      1.0000 0.54540  0.04540  0.54540  Biso   1.000  B 
  B42      1.0000 0.45460  0.95460  0.54540  Biso   1.000  B 
  B43      1.0000 0.45460  0.04540  0.45460  Biso   1.000  B 
  B44      1.0000 0.54540  0.95460  0.45460  Biso   1.000  B 
  B45      1.0000 0.54540  0.04540  0.45460  Biso   1.000  B 
  B46      1.0000 0.45460  0.95460  0.45460  Biso   1.000  B 
  B47      1.0000 0.54540  0.95460  0.54540  Biso   1.000  B 
  B48      1.0000 0.45460  0.04540  0.54540  Biso   1.000  B 
  B49      1.0000 0.54540  0.54540  0.04540  Biso   1.000  B 
  B50      1.0000 0.45460  0.45460  0.04540  Biso   1.000  B 
  B51      1.0000 0.45460  0.54540  0.95460  Biso   1.000  B 
  B52      1.0000 0.54540  0.45460  0.95460  Biso   1.000  B 
  B53      1.0000 0.54540  0.54540  0.95460  Biso   1.000  B 
  B54      1.0000 0.45460  0.45460  0.95460  Biso   1.000  B 
  B55      1.0000 0.54540  0.45460  0.04540  Biso   1.000  B 
  B56      1.0000 0.45460  0.54540  0.04540  Biso   1.000  B 
  B57      1.0000 0.13260  0.00000  0.07190  Biso   1.000  B 
  B58      1.0000 0.11720  0.00000  0.11720  Biso   1.000  B 
  B59      1.0000 0.07190  0.00000  0.13260  Biso   1.000  B 
  B60      1.0000 0.15650  0.00000  0.15650  Biso   1.000  B 
  B61      1.0000 0.20580  0.00000  0.14470  Biso   1.000  B 
  B62      1.0000 0.14470  0.00000  0.20580  Biso   1.000  B 
  B63      1.0000 0.24200  0.00000  0.17950  Biso   1.000  B 
  B64      1.0000 0.21490  0.00000  0.11140  Biso   1.000  B 
  B65      1.0000 0.17950  0.00000  0.24200  Biso   1.000  B 
  B66      1.0000 0.11140  0.00000  0.21490  Biso   1.000  B 
  B67      1.0000 0.23070  0.00000  0.23070  Biso   1.000  B 
  B68      1.0000 0.26930  0.00000  0.26930  Biso   1.000  B 
  B69      1.0000 0.27510  0.00000  0.16950  Biso   1.000  B 
  B70      1.0000 0.32050  0.00000  0.25800  Biso   1.000  B 
  B71      1.0000 0.16950  0.00000  0.27510  Biso   1.000  B 
  B72      1.0000 0.25800  0.00000  0.32050  Biso   1.000  B 
  B73      1.0000 0.35530  0.00000  0.29420  Biso   1.000  B 
  B74      1.0000 0.33050  0.00000  0.22490  Biso   1.000  B 
  B75      1.0000 0.29420  0.00000  0.35530  Biso   1.000  B 
  B76      1.0000 0.22490  0.00000  0.33050  Biso   1.000  B 
  B77      1.0000 0.34350  0.00000  0.34350  Biso   1.000  B 
  B78      1.0000 0.38280  0.00000  0.38280  Biso   1.000  B 
  O1       1.0000 0.40617  0.01822  0.28045  Biso   1.000  O 
  B79      1.0000 0.28510  0.00000  0.38860  Biso   1.000  B 
  B80      1.0000 0.42810  0.00000  0.36740  Biso   1.000  B 
  B81      1.0000 0.36740  0.00000  0.42810  Biso   1.000  B 
  C1       1.0000 0.42655  0.00743  0.23167  Biso   1.000  C 
  C2       1.0000 0.42512  0.05582  0.20228  Biso   1.000  C 
  H1       1.0000 0.40825  0.97483  0.21281  Biso   1.000  H 
  H2       1.0000 0.46509  0.99881  0.23633  Biso   1.000  H 
  H3       1.0000 0.38401  0.06172  0.20103  Biso   1.000  H 
  C3       1.0000 0.44596  0.05138  0.14740  Biso   1.000  C 
  H4       1.0000 0.43914  0.09079  0.21996  Biso   1.000  H 
  H5       1.0000 0.41777  0.07075  0.12401  Biso   1.000  H 
  H6       1.0000 0.44932  0.01196  0.13557  Biso   1.000  H 
  C4       1.0000 0.49696  0.07507  0.13574  Biso   1.000  C 
  H7       1.0000 0.49256  0.11438  0.14417  Biso   1.000  H 
  C5       1.0000 0.51393  0.07588  0.08154  Biso   1.000  C 
  H8       1.0000 0.52345  0.06041  0.16423  Biso   1.000  H 
  H9       1.0000 0.55592  0.07804  0.07885  Biso   1.000  H 
  H10      1.0000 0.49794  0.10805  0.06087  Biso   1.000  H 
  H11      1.0000 0.49937  0.04108  0.06564  Biso   1.000  H 
  B82      1.0000 0.86740  0.00000  0.07190  Biso   1.000  B 
  B83      1.0000 0.88280  0.00000  0.11720  Biso   1.000  B 
  B84      1.0000 0.92810  0.00000  0.13260  Biso   1.000  B 
  B85      1.0000 0.84350  0.00000  0.15650  Biso   1.000  B 
  B86      1.0000 0.79420  0.00000  0.14470  Biso   1.000  B 
  B87      1.0000 0.85530  0.00000  0.20580  Biso   1.000  B 
  B88      1.0000 0.75800  0.00000  0.17950  Biso   1.000  B 
  B89      1.0000 0.78510  0.00000  0.11140  Biso   1.000  B 
  B90      1.0000 0.82050  0.00000  0.24200  Biso   1.000  B 
  B91      1.0000 0.88860  0.00000  0.21490  Biso   1.000  B 
  B92      1.0000 0.76930  0.00000  0.23070  Biso   1.000  B 
  B93      1.0000 0.73070  0.00000  0.26930  Biso   1.000  B 
  B94      1.0000 0.72490  0.00000  0.16950  Biso   1.000  B 
  B95      1.0000 0.67950  0.00000  0.25800  Biso   1.000  B 
  B96      1.0000 0.83050  0.00000  0.27510  Biso   1.000  B 
  B97      1.0000 0.74200  0.00000  0.32050  Biso   1.000  B 
  B98      1.0000 0.64470  0.00000  0.29420  Biso   1.000  B 
  B99      1.0000 0.66950  0.00000  0.22490  Biso   1.000  B 
  B100     1.0000 0.70580  0.00000  0.35530  Biso   1.000  B 
  B101     1.0000 0.77510  0.00000  0.33050  Biso   1.000  B 
  B102     1.0000 0.65650  0.00000  0.34350  Biso   1.000  B 
  B103     1.0000 0.61720  0.00000  0.38280  Biso   1.000  B 
  O2       1.0000 0.59383  0.98178  0.28045  Biso   1.000  O 
  B104     1.0000 0.71490  0.00000  0.38860  Biso   1.000  B 
  B105     1.0000 0.57190  0.00000  0.36740  Biso   1.000  B 
  B106     1.0000 0.63260  0.00000  0.42810  Biso   1.000  B 
  C6       1.0000 0.57345  0.99258  0.23167  Biso   1.000  C 
  C7       1.0000 0.57487  0.94418  0.20228  Biso   1.000  C 
  H12      1.0000 0.59175  0.02517  0.21282  Biso   1.000  H 
  H13      1.0000 0.53491  0.00119  0.23634  Biso   1.000  H 
  H14      1.0000 0.61598  0.93827  0.20103  Biso   1.000  H 
  C8       1.0000 0.55404  0.94862  0.14740  Biso   1.000  C 
  H15      1.0000 0.56085  0.90921  0.21996  Biso   1.000  H 
  H16      1.0000 0.58224  0.92925  0.12402  Biso   1.000  H 
  H17      1.0000 0.55067  0.98805  0.13557  Biso   1.000  H 
  C9       1.0000 0.50304  0.92493  0.13573  Biso   1.000  C 
  H18      1.0000 0.50744  0.88562  0.14416  Biso   1.000  H 
  C10      1.0000 0.48608  0.92412  0.08153  Biso   1.000  C 
  H19      1.0000 0.47655  0.93959  0.16422  Biso   1.000  H 
  H20      1.0000 0.44409  0.92207  0.07884  Biso   1.000  H 
  H21      1.0000 0.50199  0.89189  0.06089  Biso   1.000  H 
  H22      1.0000 0.50074  0.95886  0.06559  Biso   1.000  H 
  B107     1.0000 0.86740  0.00000  0.92810  Biso   1.000  B 
  B108     1.0000 0.88280  0.00000  0.88280  Biso   1.000  B 
  B109     1.0000 0.92810  0.00000  0.86740  Biso   1.000  B 
  B110     1.0000 0.84350  0.00000  0.84350  Biso   1.000  B 
  B111     1.0000 0.79420  0.00000  0.85530  Biso   1.000  B 
  B112     1.0000 0.85530  0.00000  0.79420  Biso   1.000  B 
  B113     1.0000 0.75800  0.00000  0.82050  Biso   1.000  B 
  B114     1.0000 0.78510  0.00000  0.88860  Biso   1.000  B 
  B115     1.0000 0.82050  0.00000  0.75800  Biso   1.000  B 
  B116     1.0000 0.88860  0.00000  0.78510  Biso   1.000  B 
  B117     1.0000 0.76930  0.00000  0.76930  Biso   1.000  B 
  B118     1.0000 0.73070  0.00000  0.73070  Biso   1.000  B 
  B119     1.0000 0.72490  0.00000  0.83050  Biso   1.000  B 
  B120     1.0000 0.67950  0.00000  0.74200  Biso   1.000  B 
  B121     1.0000 0.83050  0.00000  0.72490  Biso   1.000  B 
  B122     1.0000 0.74200  0.00000  0.67950  Biso   1.000  B 
  B123     1.0000 0.64470  0.00000  0.70580  Biso   1.000  B 
  B124     1.0000 0.66950  0.00000  0.77510  Biso   1.000  B 
  B125     1.0000 0.70580  0.00000  0.64470  Biso   1.000  B 
  B126     1.0000 0.77510  0.00000  0.66950  Biso   1.000  B 
  B127     1.0000 0.65650  0.00000  0.65650  Biso   1.000  B 
  B128     1.0000 0.61720  0.00000  0.61720  Biso   1.000  B 
  O3       1.0000 0.59383  0.01822  0.71955  Biso   1.000  O 
  B129     1.0000 0.71490  0.00000  0.61140  Biso   1.000  B 
  B130     1.0000 0.57190  0.00000  0.63260  Biso   1.000  B 
  B131     1.0000 0.63260  0.00000  0.57190  Biso   1.000  B 
  C11      1.0000 0.57345  0.00743  0.76833  Biso   1.000  C 
  C12      1.0000 0.57488  0.05582  0.79772  Biso   1.000  C 
  H23      1.0000 0.59175  0.97483  0.78718  Biso   1.000  H 
  H24      1.0000 0.53491  0.99881  0.76366  Biso   1.000  H 
  H25      1.0000 0.61599  0.06172  0.79897  Biso   1.000  H 
  C13      1.0000 0.55404  0.05138  0.85260  Biso   1.000  C 
  H26      1.0000 0.56086  0.09079  0.78004  Biso   1.000  H 
  H27      1.0000 0.58224  0.07075  0.87599  Biso   1.000  H 
  H28      1.0000 0.55068  0.01196  0.86443  Biso   1.000  H 
  C14      1.0000 0.50304  0.07507  0.86426  Biso   1.000  C 
  H29      1.0000 0.50744  0.11438  0.85583  Biso   1.000  H 
  C15      1.0000 0.48608  0.07588  0.91846  Biso   1.000  C 
  H30      1.0000 0.47655  0.06041  0.83577  Biso   1.000  H 
  H31      1.0000 0.44409  0.07801  0.92115  Biso   1.000  H 
  H32      1.0000 0.50205  0.10806  0.93913  Biso   1.000  H 
  H33      1.0000 0.50065  0.04109  0.93437  Biso   1.000  H 
  B132     1.0000 0.13260  0.00000  0.92810  Biso   1.000  B 
  B133     1.0000 0.11720  0.00000  0.88280  Biso   1.000  B 
  B134     1.0000 0.07190  0.00000  0.86740  Biso   1.000  B 
  B135     1.0000 0.15650  0.00000  0.84350  Biso   1.000  B 
  B136     1.0000 0.20580  0.00000  0.85530  Biso   1.000  B 
  B137     1.0000 0.14470  0.00000  0.79420  Biso   1.000  B 
  B138     1.0000 0.24200  0.00000  0.82050  Biso   1.000  B 
  B139     1.0000 0.21490  0.00000  0.88860  Biso   1.000  B 
  B140     1.0000 0.17950  0.00000  0.75800  Biso   1.000  B 
  B141     1.0000 0.11140  0.00000  0.78510  Biso   1.000  B 
  B142     1.0000 0.23070  0.00000  0.76930  Biso   1.000  B 
  B143     1.0000 0.26930  0.00000  0.73070  Biso   1.000  B 
  B144     1.0000 0.27510  0.00000  0.83050  Biso   1.000  B 
  B145     1.0000 0.32050  0.00000  0.74200  Biso   1.000  B 
  B146     1.0000 0.16950  0.00000  0.72490  Biso   1.000  B 
  B147     1.0000 0.25800  0.00000  0.67950  Biso   1.000  B 
  B148     1.0000 0.35530  0.00000  0.70580  Biso   1.000  B 
  B149     1.0000 0.33050  0.00000  0.77510  Biso   1.000  B 
  B150     1.0000 0.29420  0.00000  0.64470  Biso   1.000  B 
  B151     1.0000 0.22490  0.00000  0.66950  Biso   1.000  B 
  B152     1.0000 0.34350  0.00000  0.65650  Biso   1.000  B 
  B153     1.0000 0.38280  0.00000  0.61720  Biso   1.000  B 
  O4       1.0000 0.40617  0.98178  0.71955  Biso   1.000  O 
  B154     1.0000 0.28510  0.00000  0.61140  Biso   1.000  B 
  B155     1.0000 0.42810  0.00000  0.63260  Biso   1.000  B 
  B156     1.0000 0.36740  0.00000  0.57190  Biso   1.000  B 
  C16      1.0000 0.42655  0.99258  0.76833  Biso   1.000  C 
  C17      1.0000 0.42513  0.94418  0.79772  Biso   1.000  C 
  H34      1.0000 0.40825  0.02517  0.78718  Biso   1.000  H 
  H35      1.0000 0.46509  0.00119  0.76366  Biso   1.000  H 
  H36      1.0000 0.38402  0.93827  0.79897  Biso   1.000  H 
  C18      1.0000 0.44596  0.94862  0.85260  Biso   1.000  C 
  H37      1.0000 0.43915  0.90921  0.78004  Biso   1.000  H 
  H38      1.0000 0.41776  0.92925  0.87599  Biso   1.000  H 
  H39      1.0000 0.44933  0.98805  0.86443  Biso   1.000  H 
  C19      1.0000 0.49696  0.92493  0.86427  Biso   1.000  C 
  H40      1.0000 0.49256  0.88562  0.85584  Biso   1.000  H 
  C20      1.0000 0.51392  0.92412  0.91847  Biso   1.000  C 
  H41      1.0000 0.52345  0.93959  0.83578  Biso   1.000  H 
  H42      1.0000 0.55591  0.92206  0.92116  Biso   1.000  H 
  H43      1.0000 0.49800  0.89190  0.93912  Biso   1.000  H 
  H44      1.0000 0.49927  0.95887  0.93440  Biso   1.000  H 
  B157     1.0000 0.07190  0.13260  0.00000  Biso   1.000  B 
  B158     1.0000 0.11720  0.11720  0.00000  Biso   1.000  B 
  B159     1.0000 0.13260  0.07190  0.00000  Biso   1.000  B 
  B160     1.0000 0.15650  0.15650  0.00000  Biso   1.000  B 
  B161     1.0000 0.14470  0.20580  0.00000  Biso   1.000  B 
  B162     1.0000 0.20580  0.14470  0.00000  Biso   1.000  B 
  B163     1.0000 0.17950  0.24200  0.00000  Biso   1.000  B 
  B164     1.0000 0.11140  0.21490  0.00000  Biso   1.000  B 
  B165     1.0000 0.24200  0.17950  0.00000  Biso   1.000  B 
  B166     1.0000 0.21490  0.11140  0.00000  Biso   1.000  B 
  B167     1.0000 0.23070  0.23070  0.00000  Biso   1.000  B 
  B168     1.0000 0.26930  0.26930  0.00000  Biso   1.000  B 
  B169     1.0000 0.16950  0.27510  0.00000  Biso   1.000  B 
  B170     1.0000 0.25800  0.32050  0.00000  Biso   1.000  B 
  B171     1.0000 0.27510  0.16950  0.00000  Biso   1.000  B 
  B172     1.0000 0.32050  0.25800  0.00000  Biso   1.000  B 
  B173     1.0000 0.29420  0.35530  0.00000  Biso   1.000  B 
  B174     1.0000 0.22490  0.33050  0.00000  Biso   1.000  B 
  B175     1.0000 0.35530  0.29420  0.00000  Biso   1.000  B 
  B176     1.0000 0.33050  0.22490  0.00000  Biso   1.000  B 
  B177     1.0000 0.34350  0.34350  0.00000  Biso   1.000  B 
  B178     1.0000 0.38280  0.38280  0.00000  Biso   1.000  B 
  O5       1.0000 0.27753  0.40804  0.00709  Biso   1.000  O 
  B179     1.0000 0.38860  0.28510  0.00000  Biso   1.000  B 
  B180     1.0000 0.36740  0.42810  0.00000  Biso   1.000  B 
  B181     1.0000 0.42810  0.36740  0.00000  Biso   1.000  B 
  C21      1.0000 0.22898  0.41102  0.03043  Biso   1.000  C 
  C22      1.0000 0.21276  0.46051  0.05305  Biso   1.000  C 
  H45      1.0000 0.22542  0.38327  0.06110  Biso   1.000  H 
  H46      1.0000 0.20129  0.40413  0.00039  Biso   1.000  H 
  H47      1.0000 0.22456  0.45729  0.09171  Biso   1.000  H 
  C23      1.0000 0.15552  0.46550  0.06018  Biso   1.000  C 
  H48      1.0000 0.22980  0.49408  0.03759  Biso   1.000  H 
  H49      1.0000 0.14299  0.43502  0.08582  Biso   1.000  H 
  H50      1.0000 0.13564  0.46112  0.02451  Biso   1.000  H 
  C24      1.0000 0.13836  0.51597  0.08384  Biso   1.000  C 
  H51      1.0000 0.15186  0.51749  0.12235  Biso   1.000  H 
  C25      1.0000 0.08064  0.51752  0.08326  Biso   1.000  C 
  H52      1.0000 0.15386  0.54857  0.06345  Biso   1.000  H 
  H53      1.0000 0.06894  0.54210  0.05215  Biso   1.000  H 
  H54      1.0000 0.06612  0.53392  0.11821  Biso   1.000  H 
  H55      1.0000 0.06326  0.48035  0.07873  Biso   1.000  H 
  B182     1.0000 0.07190  0.86740  0.00000  Biso   1.000  B 
  B183     1.0000 0.11720  0.88280  0.00000  Biso   1.000  B 
  B184     1.0000 0.13260  0.92810  0.00000  Biso   1.000  B 
  B185     1.0000 0.15650  0.84350  0.00000  Biso   1.000  B 
  B186     1.0000 0.14470  0.79420  0.00000  Biso   1.000  B 
  B187     1.0000 0.20580  0.85530  0.00000  Biso   1.000  B 
  B188     1.0000 0.17950  0.75800  0.00000  Biso   1.000  B 
  B189     1.0000 0.11140  0.78510  0.00000  Biso   1.000  B 
  B190     1.0000 0.24200  0.82050  0.00000  Biso   1.000  B 
  B191     1.0000 0.21490  0.88860  0.00000  Biso   1.000  B 
  B192     1.0000 0.23070  0.76930  0.00000  Biso   1.000  B 
  B193     1.0000 0.26930  0.73070  0.00000  Biso   1.000  B 
  B194     1.0000 0.16950  0.72490  0.00000  Biso   1.000  B 
  B195     1.0000 0.25800  0.67950  0.00000  Biso   1.000  B 
  B196     1.0000 0.27510  0.83050  0.00000  Biso   1.000  B 
  B197     1.0000 0.32050  0.74200  0.00000  Biso   1.000  B 
  B198     1.0000 0.29420  0.64470  0.00000  Biso   1.000  B 
  B199     1.0000 0.22490  0.66950  0.00000  Biso   1.000  B 
  B200     1.0000 0.35530  0.70580  0.00000  Biso   1.000  B 
  B201     1.0000 0.33050  0.77510  0.00000  Biso   1.000  B 
  B202     1.0000 0.34350  0.65650  0.00000  Biso   1.000  B 
  B203     1.0000 0.38280  0.61720  0.00000  Biso   1.000  B 
  O6       1.0000 0.27753  0.59196  0.99291  Biso   1.000  O 
  B204     1.0000 0.38860  0.71490  0.00000  Biso   1.000  B 
  B205     1.0000 0.36740  0.57190  0.00000  Biso   1.000  B 
  B206     1.0000 0.42810  0.63260  0.00000  Biso   1.000  B 
  C26      1.0000 0.22898  0.58898  0.96958  Biso   1.000  C 
  C27      1.0000 0.21276  0.53949  0.94695  Biso   1.000  C 
  H56      1.0000 0.22542  0.61673  0.93890  Biso   1.000  H 
  H57      1.0000 0.20129  0.59587  0.99961  Biso   1.000  H 
  H58      1.0000 0.22456  0.54271  0.90829  Biso   1.000  H 
  C28      1.0000 0.15552  0.53450  0.93982  Biso   1.000  C 
  H59      1.0000 0.22980  0.50592  0.96241  Biso   1.000  H 
  H60      1.0000 0.14299  0.56498  0.91418  Biso   1.000  H 
  H61      1.0000 0.13564  0.53888  0.97549  Biso   1.000  H 
  C29      1.0000 0.13836  0.48403  0.91615  Biso   1.000  C 
  H62      1.0000 0.15186  0.48251  0.87765  Biso   1.000  H 
  C30      1.0000 0.08064  0.48248  0.91674  Biso   1.000  C 
  H63      1.0000 0.15386  0.45143  0.93654  Biso   1.000  H 
  H64      1.0000 0.06894  0.45790  0.94785  Biso   1.000  H 
  H65      1.0000 0.06612  0.46608  0.88179  Biso   1.000  H 
  H66      1.0000 0.06326  0.51965  0.92127  Biso   1.000  H 
  B207     1.0000 0.92810  0.86740  0.00000  Biso   1.000  B 
  B208     1.0000 0.88280  0.88280  0.00000  Biso   1.000  B 
  B209     1.0000 0.86740  0.92810  0.00000  Biso   1.000  B 
  B210     1.0000 0.84350  0.84350  0.00000  Biso   1.000  B 
  B211     1.0000 0.85530  0.79420  0.00000  Biso   1.000  B 
  B212     1.0000 0.79420  0.85530  0.00000  Biso   1.000  B 
  B213     1.0000 0.82050  0.75800  0.00000  Biso   1.000  B 
  B214     1.0000 0.88860  0.78510  0.00000  Biso   1.000  B 
  B215     1.0000 0.75800  0.82050  0.00000  Biso   1.000  B 
  B216     1.0000 0.78510  0.88860  0.00000  Biso   1.000  B 
  B217     1.0000 0.76930  0.76930  0.00000  Biso   1.000  B 
  B218     1.0000 0.73070  0.73070  0.00000  Biso   1.000  B 
  B219     1.0000 0.83050  0.72490  0.00000  Biso   1.000  B 
  B220     1.0000 0.74200  0.67950  0.00000  Biso   1.000  B 
  B221     1.0000 0.72490  0.83050  0.00000  Biso   1.000  B 
  B222     1.0000 0.67950  0.74200  0.00000  Biso   1.000  B 
  B223     1.0000 0.70580  0.64470  0.00000  Biso   1.000  B 
  B224     1.0000 0.77510  0.66950  0.00000  Biso   1.000  B 
  B225     1.0000 0.64470  0.70580  0.00000  Biso   1.000  B 
  B226     1.0000 0.66950  0.77510  0.00000  Biso   1.000  B 
  B227     1.0000 0.65650  0.65650  0.00000  Biso   1.000  B 
  B228     1.0000 0.61720  0.61720  0.00000  Biso   1.000  B 
  O7       1.0000 0.72248  0.59196  0.00709  Biso   1.000  O 
  B229     1.0000 0.61140  0.71490  0.00000  Biso   1.000  B 
  B230     1.0000 0.63260  0.57190  0.00000  Biso   1.000  B 
  B231     1.0000 0.57190  0.63260  0.00000  Biso   1.000  B 
  C31      1.0000 0.77102  0.58898  0.03043  Biso   1.000  C 
  C32      1.0000 0.78724  0.53949  0.05305  Biso   1.000  C 
  H67      1.0000 0.77458  0.61673  0.06110  Biso   1.000  H 
  H68      1.0000 0.79871  0.59587  0.00039  Biso   1.000  H 
  H69      1.0000 0.77544  0.54271  0.09171  Biso   1.000  H 
  C33      1.0000 0.84448  0.53450  0.06018  Biso   1.000  C 
  H70      1.0000 0.77020  0.50592  0.03759  Biso   1.000  H 
  H71      1.0000 0.85700  0.56498  0.08582  Biso   1.000  H 
  H72      1.0000 0.86436  0.53888  0.02451  Biso   1.000  H 
  C34      1.0000 0.86164  0.48403  0.08384  Biso   1.000  C 
  H73      1.0000 0.84814  0.48251  0.12235  Biso   1.000  H 
  C35      1.0000 0.91936  0.48248  0.08326  Biso   1.000  C 
  H74      1.0000 0.84614  0.45143  0.06345  Biso   1.000  H 
  H75      1.0000 0.93106  0.45790  0.05215  Biso   1.000  H 
  H76      1.0000 0.93388  0.46608  0.11821  Biso   1.000  H 
  H77      1.0000 0.93674  0.51965  0.07873  Biso   1.000  H 
  B232     1.0000 0.92810  0.13260  0.00000  Biso   1.000  B 
  B233     1.0000 0.88280  0.11720  0.00000  Biso   1.000  B 
  B234     1.0000 0.86740  0.07190  0.00000  Biso   1.000  B 
  B235     1.0000 0.84350  0.15650  0.00000  Biso   1.000  B 
  B236     1.0000 0.85530  0.20580  0.00000  Biso   1.000  B 
  B237     1.0000 0.79420  0.14470  0.00000  Biso   1.000  B 
  B238     1.0000 0.82050  0.24200  0.00000  Biso   1.000  B 
  B239     1.0000 0.88860  0.21490  0.00000  Biso   1.000  B 
  B240     1.0000 0.75800  0.17950  0.00000  Biso   1.000  B 
  B241     1.0000 0.78510  0.11140  0.00000  Biso   1.000  B 
  B242     1.0000 0.76930  0.23070  0.00000  Biso   1.000  B 
  B243     1.0000 0.73070  0.26930  0.00000  Biso   1.000  B 
  B244     1.0000 0.83050  0.27510  0.00000  Biso   1.000  B 
  B245     1.0000 0.74200  0.32050  0.00000  Biso   1.000  B 
  B246     1.0000 0.72490  0.16950  0.00000  Biso   1.000  B 
  B247     1.0000 0.67950  0.25800  0.00000  Biso   1.000  B 
  B248     1.0000 0.70580  0.35530  0.00000  Biso   1.000  B 
  B249     1.0000 0.77510  0.33050  0.00000  Biso   1.000  B 
  B250     1.0000 0.64470  0.29420  0.00000  Biso   1.000  B 
  B251     1.0000 0.66950  0.22490  0.00000  Biso   1.000  B 
  B252     1.0000 0.65650  0.34350  0.00000  Biso   1.000  B 
  B253     1.0000 0.61720  0.38280  0.00000  Biso   1.000  B 
  O8       1.0000 0.72248  0.40804  0.99291  Biso   1.000  O 
  B254     1.0000 0.61140  0.28510  0.00000  Biso   1.000  B 
  B255     1.0000 0.63260  0.42810  0.00000  Biso   1.000  B 
  B256     1.0000 0.57190  0.36740  0.00000  Biso   1.000  B 
  C36      1.0000 0.77102  0.41102  0.96958  Biso   1.000  C 
  C37      1.0000 0.78724  0.46051  0.94695  Biso   1.000  C 
  H78      1.0000 0.77458  0.38327  0.93890  Biso   1.000  H 
  H79      1.0000 0.79871  0.40413  0.99961  Biso   1.000  H 
  H80      1.0000 0.77544  0.45729  0.90829  Biso   1.000  H 
  C38      1.0000 0.84448  0.46550  0.93982  Biso   1.000  C 
  H81      1.0000 0.77020  0.49408  0.96241  Biso   1.000  H 
  H82      1.0000 0.85700  0.43502  0.91418  Biso   1.000  H 
  H83      1.0000 0.86436  0.46112  0.97549  Biso   1.000  H 
  C39      1.0000 0.86164  0.51597  0.91615  Biso   1.000  C 
  H84      1.0000 0.84814  0.51749  0.87765  Biso   1.000  H 
  C40      1.0000 0.91936  0.51752  0.91674  Biso   1.000  C 
  H85      1.0000 0.84614  0.54857  0.93654  Biso   1.000  H 
  H86      1.0000 0.93106  0.54210  0.94785  Biso   1.000  H 
  H87      1.0000 0.93388  0.53392  0.88179  Biso   1.000  H 
  H88      1.0000 0.93674  0.48035  0.92127  Biso   1.000  H 
  B257     1.0000 0.00000  0.07190  0.13260  Biso   1.000  B 
  B258     1.0000 0.00000  0.11720  0.11720  Biso   1.000  B 
  B259     1.0000 0.00000  0.13260  0.07190  Biso   1.000  B 
  B260     1.0000 0.00000  0.15650  0.15650  Biso   1.000  B 
  B261     1.0000 0.00000  0.14470  0.20580  Biso   1.000  B 
  B262     1.0000 0.00000  0.20580  0.14470  Biso   1.000  B 
  B263     1.0000 0.00000  0.17950  0.24200  Biso   1.000  B 
  B264     1.0000 0.00000  0.11140  0.21490  Biso   1.000  B 
  B265     1.0000 0.00000  0.24200  0.17950  Biso   1.000  B 
  B266     1.0000 0.00000  0.21490  0.11140  Biso   1.000  B 
  B267     1.0000 0.00000  0.23070  0.23070  Biso   1.000  B 
  B268     1.0000 0.00000  0.26930  0.26930  Biso   1.000  B 
  B269     1.0000 0.00000  0.16950  0.27510  Biso   1.000  B 
  B270     1.0000 0.00000  0.25800  0.32050  Biso   1.000  B 
  B271     1.0000 0.00000  0.27510  0.16950  Biso   1.000  B 
  B272     1.0000 0.00000  0.32050  0.25800  Biso   1.000  B 
  B273     1.0000 0.00000  0.29420  0.35530  Biso   1.000  B 
  B274     1.0000 0.00000  0.22490  0.33050  Biso   1.000  B 
  B275     1.0000 0.00000  0.35530  0.29420  Biso   1.000  B 
  B276     1.0000 0.00000  0.33050  0.22490  Biso   1.000  B 
  B277     1.0000 0.00000  0.34350  0.34350  Biso   1.000  B 
  B278     1.0000 0.00000  0.38280  0.38280  Biso   1.000  B 
  O9       1.0000 0.00529  0.28107  0.40626  Biso   1.000  O 
  B279     1.0000 0.00000  0.38860  0.28510  Biso   1.000  B 
  B280     1.0000 0.00000  0.36740  0.42810  Biso   1.000  B 
  B281     1.0000 0.00000  0.42810  0.36740  Biso   1.000  B 
  C41      1.0000 0.99528  0.23394  0.42093  Biso   1.000  C 
  C42      1.0000 0.04505  0.21253  0.42731  Biso   1.000  C 
  H89      1.0000 0.96749  0.21361  0.39707  Biso   1.000  H 
  H90      1.0000 0.98090  0.23474  0.45963  Biso   1.000  H 
  H91      1.0000 0.06944  0.21993  0.39406  Biso   1.000  H 
  C43      1.0000 0.04826  0.15875  0.43802  Biso   1.000  C 
  H92      1.0000 0.05986  0.23300  0.46050  Biso   1.000  H 
  H93      1.0000 0.05500  0.13877  0.40183  Biso   1.000  H 
  H94      1.0000 0.01208  0.14554  0.45415  Biso   1.000  H 
  C44      1.0000 0.09237  0.14778  0.47472  Biso   1.000  C 
  H95      1.0000 0.12530  0.14254  0.45210  Biso   1.000  H 
  C45      1.0000 0.08495  0.10373  0.51032  Biso   1.000  C 
  H96      1.0000 0.10164  0.17906  0.49928  Biso   1.000  H 
  H97      1.0000 0.12115  0.09780  0.52876  Biso   1.000  H 
  H98      1.0000 0.07159  0.06938  0.48857  Biso   1.000  H 
  H99      1.0000 0.05710  0.10949  0.53963  Biso   1.000  H 
  B282     1.0000 0.00000  0.07190  0.86740  Biso   1.000  B 
  B283     1.0000 0.00000  0.11720  0.88280  Biso   1.000  B 
  B284     1.0000 0.00000  0.13260  0.92810  Biso   1.000  B 
  B285     1.0000 0.00000  0.15650  0.84350  Biso   1.000  B 
  B286     1.0000 0.00000  0.14470  0.79420  Biso   1.000  B 
  B287     1.0000 0.00000  0.20580  0.85530  Biso   1.000  B 
  B288     1.0000 0.00000  0.17950  0.75800  Biso   1.000  B 
  B289     1.0000 0.00000  0.11140  0.78510  Biso   1.000  B 
  B290     1.0000 0.00000  0.24200  0.82050  Biso   1.000  B 
  B291     1.0000 0.00000  0.21490  0.88860  Biso   1.000  B 
  B292     1.0000 0.00000  0.23070  0.76930  Biso   1.000  B 
  B293     1.0000 0.00000  0.26930  0.73070  Biso   1.000  B 
  B294     1.0000 0.00000  0.16950  0.72490  Biso   1.000  B 
  B295     1.0000 0.00000  0.25800  0.67950  Biso   1.000  B 
  B296     1.0000 0.00000  0.27510  0.83050  Biso   1.000  B 
  B297     1.0000 0.00000  0.32050  0.74200  Biso   1.000  B 
  B298     1.0000 0.00000  0.29420  0.64470  Biso   1.000  B 
  B299     1.0000 0.00000  0.22490  0.66950  Biso   1.000  B 
  B300     1.0000 0.00000  0.35530  0.70580  Biso   1.000  B 
  B301     1.0000 0.00000  0.33050  0.77510  Biso   1.000  B 
  B302     1.0000 0.00000  0.34350  0.65650  Biso   1.000  B 
  B303     1.0000 0.00000  0.38280  0.61720  Biso   1.000  B 
  O10      1.0000 0.99471  0.28107  0.59374  Biso   1.000  O 
  B304     1.0000 0.00000  0.38860  0.71490  Biso   1.000  B 
  B305     1.0000 0.00000  0.36740  0.57190  Biso   1.000  B 
  B306     1.0000 0.00000  0.42810  0.63260  Biso   1.000  B 
  C46      1.0000 0.00472  0.23393  0.57907  Biso   1.000  C 
  C47      1.0000 0.95494  0.21253  0.57269  Biso   1.000  C 
  H100     1.0000 0.03251  0.21360  0.60293  Biso   1.000  H 
  H101     1.0000 0.01910  0.23474  0.54037  Biso   1.000  H 
  H102     1.0000 0.93055  0.21995  0.60593  Biso   1.000  H 
  C48      1.0000 0.95174  0.15874  0.56199  Biso   1.000  C 
  H103     1.0000 0.94015  0.23300  0.53949  Biso   1.000  H 
  H104     1.0000 0.94496  0.13878  0.59819  Biso   1.000  H 
  H105     1.0000 0.98792  0.14551  0.54591  Biso   1.000  H 
  C49      1.0000 0.90764  0.14777  0.52527  Biso   1.000  C 
  H106     1.0000 0.87470  0.14253  0.54787  Biso   1.000  H 
  C50      1.0000 0.91507  0.10371  0.48968  Biso   1.000  C 
  H107     1.0000 0.89838  0.17905  0.50070  Biso   1.000  H 
  H108     1.0000 0.87889  0.09781  0.47121  Biso   1.000  H 
  H109     1.0000 0.92839  0.06936  0.51144  Biso   1.000  H 
  H110     1.0000 0.94296  0.10946  0.46040  Biso   1.000  H 
  B307     1.0000 0.00000  0.92810  0.86740  Biso   1.000  B 
  B308     1.0000 0.00000  0.88280  0.88280  Biso   1.000  B 
  B309     1.0000 0.00000  0.86740  0.92810  Biso   1.000  B 
  B310     1.0000 0.00000  0.84350  0.84350  Biso   1.000  B 
  B311     1.0000 0.00000  0.85530  0.79420  Biso   1.000  B 
  B312     1.0000 0.00000  0.79420  0.85530  Biso   1.000  B 
  B313     1.0000 0.00000  0.82050  0.75800  Biso   1.000  B 
  B314     1.0000 0.00000  0.88860  0.78510  Biso   1.000  B 
  B315     1.0000 0.00000  0.75800  0.82050  Biso   1.000  B 
  B316     1.0000 0.00000  0.78510  0.88860  Biso   1.000  B 
  B317     1.0000 0.00000  0.76930  0.76930  Biso   1.000  B 
  B318     1.0000 0.00000  0.73070  0.73070  Biso   1.000  B 
  B319     1.0000 0.00000  0.83050  0.72490  Biso   1.000  B 
  B320     1.0000 0.00000  0.74200  0.67950  Biso   1.000  B 
  B321     1.0000 0.00000  0.72490  0.83050  Biso   1.000  B 
  B322     1.0000 0.00000  0.67950  0.74200  Biso   1.000  B 
  B323     1.0000 0.00000  0.70580  0.64470  Biso   1.000  B 
  B324     1.0000 0.00000  0.77510  0.66950  Biso   1.000  B 
  B325     1.0000 0.00000  0.64470  0.70580  Biso   1.000  B 
  B326     1.0000 0.00000  0.66950  0.77510  Biso   1.000  B 
  B327     1.0000 0.00000  0.65650  0.65650  Biso   1.000  B 
  B328     1.0000 0.00000  0.61720  0.61720  Biso   1.000  B 
  O11      1.0000 0.00529  0.71893  0.59374  Biso   1.000  O 
  B329     1.0000 0.00000  0.61140  0.71490  Biso   1.000  B 
  B330     1.0000 0.00000  0.63260  0.57190  Biso   1.000  B 
  B331     1.0000 0.00000  0.57190  0.63260  Biso   1.000  B 
  C51      1.0000 0.99528  0.76607  0.57907  Biso   1.000  C 
  C52      1.0000 0.04505  0.78747  0.57269  Biso   1.000  C 
  H111     1.0000 0.96749  0.78640  0.60293  Biso   1.000  H 
  H112     1.0000 0.98090  0.76526  0.54037  Biso   1.000  H 
  H113     1.0000 0.06944  0.78006  0.60594  Biso   1.000  H 
  C53      1.0000 0.04826  0.84126  0.56198  Biso   1.000  C 
  H114     1.0000 0.05986  0.76700  0.53950  Biso   1.000  H 
  H115     1.0000 0.05501  0.86122  0.59817  Biso   1.000  H 
  H116     1.0000 0.01208  0.85447  0.54587  Biso   1.000  H 
  C54      1.0000 0.09237  0.85222  0.52528  Biso   1.000  C 
  H117     1.0000 0.12530  0.85746  0.54790  Biso   1.000  H 
  C55      1.0000 0.08494  0.89627  0.48968  Biso   1.000  C 
  H118     1.0000 0.10164  0.82094  0.50072  Biso   1.000  H 
  H119     1.0000 0.12114  0.90220  0.47124  Biso   1.000  H 
  H120     1.0000 0.07159  0.93063  0.51144  Biso   1.000  H 
  H121     1.0000 0.05709  0.89051  0.46038  Biso   1.000  H 
  B332     1.0000 0.00000  0.92810  0.13260  Biso   1.000  B 
  B333     1.0000 0.00000  0.88280  0.11720  Biso   1.000  B 
  B334     1.0000 0.00000  0.86740  0.07190  Biso   1.000  B 
  B335     1.0000 0.00000  0.84350  0.15650  Biso   1.000  B 
  B336     1.0000 0.00000  0.85530  0.20580  Biso   1.000  B 
  B337     1.0000 0.00000  0.79420  0.14470  Biso   1.000  B 
  B338     1.0000 0.00000  0.82050  0.24200  Biso   1.000  B 
  B339     1.0000 0.00000  0.88860  0.21490  Biso   1.000  B 
  B340     1.0000 0.00000  0.75800  0.17950  Biso   1.000  B 
  B341     1.0000 0.00000  0.78510  0.11140  Biso   1.000  B 
  B342     1.0000 0.00000  0.76930  0.23070  Biso   1.000  B 
  B343     1.0000 0.00000  0.73070  0.26930  Biso   1.000  B 
  B344     1.0000 0.00000  0.83050  0.27510  Biso   1.000  B 
  B345     1.0000 0.00000  0.74200  0.32050  Biso   1.000  B 
  B346     1.0000 0.00000  0.72490  0.16950  Biso   1.000  B 
  B347     1.0000 0.00000  0.67950  0.25800  Biso   1.000  B 
  B348     1.0000 0.00000  0.70580  0.35530  Biso   1.000  B 
  B349     1.0000 0.00000  0.77510  0.33050  Biso   1.000  B 
  B350     1.0000 0.00000  0.64470  0.29420  Biso   1.000  B 
  B351     1.0000 0.00000  0.66950  0.22490  Biso   1.000  B 
  B352     1.0000 0.00000  0.65650  0.34350  Biso   1.000  B 
  B353     1.0000 0.00000  0.61720  0.38280  Biso   1.000  B 
  O12      1.0000 0.99471  0.71893  0.40626  Biso   1.000  O 
  B354     1.0000 0.00000  0.61140  0.28510  Biso   1.000  B 
  B355     1.0000 0.00000  0.63260  0.42810  Biso   1.000  B 
  B356     1.0000 0.00000  0.57190  0.36740  Biso   1.000  B 
  C56      1.0000 0.00472  0.76607  0.42093  Biso   1.000  C 
  C57      1.0000 0.95494  0.78747  0.42731  Biso   1.000  C 
  H122     1.0000 0.03251  0.78640  0.39707  Biso   1.000  H 
  H123     1.0000 0.01910  0.76526  0.45963  Biso   1.000  H 
  H124     1.0000 0.93056  0.78006  0.39407  Biso   1.000  H 
  C58      1.0000 0.95174  0.84126  0.43802  Biso   1.000  C 
  H125     1.0000 0.94015  0.76700  0.46051  Biso   1.000  H 
  H126     1.0000 0.94497  0.86122  0.40182  Biso   1.000  H 
  H127     1.0000 0.98793  0.85448  0.45411  Biso   1.000  H 
  C59      1.0000 0.90764  0.85223  0.47473  Biso   1.000  C 
  H128     1.0000 0.87470  0.85746  0.45212  Biso   1.000  H 
  C60      1.0000 0.91507  0.89628  0.51032  Biso   1.000  C 
  H129     1.0000 0.89838  0.82095  0.49930  Biso   1.000  H 
  H130     1.0000 0.87888  0.90219  0.52878  Biso   1.000  H 
  H131     1.0000 0.92839  0.93064  0.48856  Biso   1.000  H 
  H132     1.0000 0.94294  0.89053  0.53961  Biso   1.000  H 
  B357     1.0000 0.13260  0.50000  0.57190  Biso   1.000  B 
  B358     1.0000 0.11720  0.50000  0.61720  Biso   1.000  B 
  B359     1.0000 0.07190  0.50000  0.63260  Biso   1.000  B 
  B360     1.0000 0.15650  0.50000  0.65650  Biso   1.000  B 
  B361     1.0000 0.20580  0.50000  0.64470  Biso   1.000  B 
  B362     1.0000 0.14470  0.50000  0.70580  Biso   1.000  B 
  B363     1.0000 0.24200  0.50000  0.67950  Biso   1.000  B 
  B364     1.0000 0.21490  0.50000  0.61140  Biso   1.000  B 
  B365     1.0000 0.17950  0.50000  0.74200  Biso   1.000  B 
  B366     1.0000 0.11140  0.50000  0.71490  Biso   1.000  B 
  B367     1.0000 0.23070  0.50000  0.73070  Biso   1.000  B 
  B368     1.0000 0.26930  0.50000  0.76930  Biso   1.000  B 
  B369     1.0000 0.27510  0.50000  0.66950  Biso   1.000  B 
  B370     1.0000 0.32050  0.50000  0.75800  Biso   1.000  B 
  B371     1.0000 0.16950  0.50000  0.77510  Biso   1.000  B 
  B372     1.0000 0.25800  0.50000  0.82050  Biso   1.000  B 
  B373     1.0000 0.35530  0.50000  0.79420  Biso   1.000  B 
  B374     1.0000 0.33050  0.50000  0.72490  Biso   1.000  B 
  B375     1.0000 0.29420  0.50000  0.85530  Biso   1.000  B 
  B376     1.0000 0.22490  0.50000  0.83050  Biso   1.000  B 
  B377     1.0000 0.34350  0.50000  0.84350  Biso   1.000  B 
  B378     1.0000 0.38280  0.50000  0.88280  Biso   1.000  B 
  O13      1.0000 0.40811  0.50666  0.77752  Biso   1.000  O 
  B379     1.0000 0.28510  0.50000  0.88860  Biso   1.000  B 
  B380     1.0000 0.42810  0.50000  0.86740  Biso   1.000  B 
  B381     1.0000 0.36740  0.50000  0.92810  Biso   1.000  B 
  C61      1.0000 0.41099  0.52951  0.72863  Biso   1.000  C 
  C62      1.0000 0.45951  0.55381  0.71214  Biso   1.000  C 
  H133     1.0000 0.38287  0.55973  0.72452  Biso   1.000  H 
  H134     1.0000 0.40479  0.49903  0.70128  Biso   1.000  H 
  H135     1.0000 0.45627  0.59196  0.72542  Biso   1.000  H 
  C63      1.0000 0.46379  0.56234  0.65484  Biso   1.000  C 
  H136     1.0000 0.49344  0.53777  0.72775  Biso   1.000  H 
  H137     1.0000 0.43364  0.58855  0.64276  Biso   1.000  H 
  H138     1.0000 0.45894  0.52703  0.63445  Biso   1.000  H 
  C64      1.0000 0.51500  0.58551  0.63850  Biso   1.000  C 
  H139     1.0000 0.51630  0.62433  0.65110  Biso   1.000  H 
  C65      1.0000 0.51744  0.58392  0.58144  Biso   1.000  C 
  H140     1.0000 0.54731  0.56509  0.65461  Biso   1.000  H 
  H141     1.0000 0.52618  0.54506  0.56989  Biso   1.000  H 
  H142     1.0000 0.54794  0.60827  0.56796  Biso   1.000  H 
  H143     1.0000 0.48208  0.59636  0.56393  Biso   1.000  H 
  B382     1.0000 0.86740  0.50000  0.57190  Biso   1.000  B 
  B383     1.0000 0.88280  0.50000  0.61720  Biso   1.000  B 
  B384     1.0000 0.92810  0.50000  0.63260  Biso   1.000  B 
  B385     1.0000 0.84350  0.50000  0.65650  Biso   1.000  B 
  B386     1.0000 0.79420  0.50000  0.64470  Biso   1.000  B 
  B387     1.0000 0.85530  0.50000  0.70580  Biso   1.000  B 
  B388     1.0000 0.75800  0.50000  0.67950  Biso   1.000  B 
  B389     1.0000 0.78510  0.50000  0.61140  Biso   1.000  B 
  B390     1.0000 0.82050  0.50000  0.74200  Biso   1.000  B 
  B391     1.0000 0.88860  0.50000  0.71490  Biso   1.000  B 
  B392     1.0000 0.76930  0.50000  0.73070  Biso   1.000  B 
  B393     1.0000 0.73070  0.50000  0.76930  Biso   1.000  B 
  B394     1.0000 0.72490  0.50000  0.66950  Biso   1.000  B 
  B395     1.0000 0.67950  0.50000  0.75800  Biso   1.000  B 
  B396     1.0000 0.83050  0.50000  0.77510  Biso   1.000  B 
  B397     1.0000 0.74200  0.50000  0.82050  Biso   1.000  B 
  B398     1.0000 0.64470  0.50000  0.79420  Biso   1.000  B 
  B399     1.0000 0.66950  0.50000  0.72490  Biso   1.000  B 
  B400     1.0000 0.70580  0.50000  0.85530  Biso   1.000  B 
  B401     1.0000 0.77510  0.50000  0.83050  Biso   1.000  B 
  B402     1.0000 0.65650  0.50000  0.84350  Biso   1.000  B 
  B403     1.0000 0.61720  0.50000  0.88280  Biso   1.000  B 
  O14      1.0000 0.59189  0.49334  0.77752  Biso   1.000  O 
  B404     1.0000 0.71490  0.50000  0.88860  Biso   1.000  B 
  B405     1.0000 0.57190  0.50000  0.86740  Biso   1.000  B 
  B406     1.0000 0.63260  0.50000  0.92810  Biso   1.000  B 
  C66      1.0000 0.58901  0.47049  0.72863  Biso   1.000  C 
  C67      1.0000 0.54049  0.44619  0.71214  Biso   1.000  C 
  H144     1.0000 0.61713  0.44027  0.72452  Biso   1.000  H 
  H145     1.0000 0.59521  0.50097  0.70128  Biso   1.000  H 
  H146     1.0000 0.54373  0.40804  0.72542  Biso   1.000  H 
  C68      1.0000 0.53621  0.43766  0.65484  Biso   1.000  C 
  H147     1.0000 0.50656  0.46223  0.72775  Biso   1.000  H 
  H148     1.0000 0.56636  0.41145  0.64276  Biso   1.000  H 
  H149     1.0000 0.54106  0.47297  0.63445  Biso   1.000  H 
  C69      1.0000 0.48500  0.41449  0.63850  Biso   1.000  C 
  H150     1.0000 0.48370  0.37567  0.65110  Biso   1.000  H 
  C70      1.0000 0.48256  0.41608  0.58144  Biso   1.000  C 
  H151     1.0000 0.45269  0.43491  0.65461  Biso   1.000  H 
  H152     1.0000 0.47382  0.45494  0.56989  Biso   1.000  H 
  H153     1.0000 0.45206  0.39173  0.56796  Biso   1.000  H 
  H154     1.0000 0.51792  0.40364  0.56393  Biso   1.000  H 
  B407     1.0000 0.86740  0.50000  0.42810  Biso   1.000  B 
  B408     1.0000 0.88280  0.50000  0.38280  Biso   1.000  B 
  B409     1.0000 0.92810  0.50000  0.36740  Biso   1.000  B 
  B410     1.0000 0.84350  0.50000  0.34350  Biso   1.000  B 
  B411     1.0000 0.79420  0.50000  0.35530  Biso   1.000  B 
  B412     1.0000 0.85530  0.50000  0.29420  Biso   1.000  B 
  B413     1.0000 0.75800  0.50000  0.32050  Biso   1.000  B 
  B414     1.0000 0.78510  0.50000  0.38860  Biso   1.000  B 
  B415     1.0000 0.82050  0.50000  0.25800  Biso   1.000  B 
  B416     1.0000 0.88860  0.50000  0.28510  Biso   1.000  B 
  B417     1.0000 0.76930  0.50000  0.26930  Biso   1.000  B 
  B418     1.0000 0.73070  0.50000  0.23070  Biso   1.000  B 
  B419     1.0000 0.72490  0.50000  0.33050  Biso   1.000  B 
  B420     1.0000 0.67950  0.50000  0.24200  Biso   1.000  B 
  B421     1.0000 0.83050  0.50000  0.22490  Biso   1.000  B 
  B422     1.0000 0.74200  0.50000  0.17950  Biso   1.000  B 
  B423     1.0000 0.64470  0.50000  0.20580  Biso   1.000  B 
  B424     1.0000 0.66950  0.50000  0.27510  Biso   1.000  B 
  B425     1.0000 0.70580  0.50000  0.14470  Biso   1.000  B 
  B426     1.0000 0.77510  0.50000  0.16950  Biso   1.000  B 
  B427     1.0000 0.65650  0.50000  0.15650  Biso   1.000  B 
  B428     1.0000 0.61720  0.50000  0.11720  Biso   1.000  B 
  O15      1.0000 0.59189  0.50666  0.22248  Biso   1.000  O 
  B429     1.0000 0.71490  0.50000  0.11140  Biso   1.000  B 
  B430     1.0000 0.57190  0.50000  0.13260  Biso   1.000  B 
  B431     1.0000 0.63260  0.50000  0.07190  Biso   1.000  B 
  C71      1.0000 0.58901  0.52951  0.27137  Biso   1.000  C 
  C72      1.0000 0.54049  0.55381  0.28786  Biso   1.000  C 
  H155     1.0000 0.61713  0.55973  0.27548  Biso   1.000  H 
  H156     1.0000 0.59521  0.49903  0.29872  Biso   1.000  H 
  H157     1.0000 0.54373  0.59196  0.27458  Biso   1.000  H 
  C73      1.0000 0.53621  0.56234  0.34516  Biso   1.000  C 
  H158     1.0000 0.50656  0.53777  0.27225  Biso   1.000  H 
  H159     1.0000 0.56636  0.58855  0.35724  Biso   1.000  H 
  H160     1.0000 0.54106  0.52703  0.36555  Biso   1.000  H 
  C74      1.0000 0.48500  0.58551  0.36150  Biso   1.000  C 
  H161     1.0000 0.48370  0.62433  0.34890  Biso   1.000  H 
  C75      1.0000 0.48256  0.58392  0.41856  Biso   1.000  C 
  H162     1.0000 0.45269  0.56509  0.34539  Biso   1.000  H 
  H163     1.0000 0.47382  0.54506  0.43011  Biso   1.000  H 
  H164     1.0000 0.45206  0.60827  0.43204  Biso   1.000  H 
  H165     1.0000 0.51792  0.59636  0.43607  Biso   1.000  H 
  B432     1.0000 0.13260  0.50000  0.42810  Biso   1.000  B 
  B433     1.0000 0.11720  0.50000  0.38280  Biso   1.000  B 
  B434     1.0000 0.07190  0.50000  0.36740  Biso   1.000  B 
  B435     1.0000 0.15650  0.50000  0.34350  Biso   1.000  B 
  B436     1.0000 0.20580  0.50000  0.35530  Biso   1.000  B 
  B437     1.0000 0.14470  0.50000  0.29420  Biso   1.000  B 
  B438     1.0000 0.24200  0.50000  0.32050  Biso   1.000  B 
  B439     1.0000 0.21490  0.50000  0.38860  Biso   1.000  B 
  B440     1.0000 0.17950  0.50000  0.25800  Biso   1.000  B 
  B441     1.0000 0.11140  0.50000  0.28510  Biso   1.000  B 
  B442     1.0000 0.23070  0.50000  0.26930  Biso   1.000  B 
  B443     1.0000 0.26930  0.50000  0.23070  Biso   1.000  B 
  B444     1.0000 0.27510  0.50000  0.33050  Biso   1.000  B 
  B445     1.0000 0.32050  0.50000  0.24200  Biso   1.000  B 
  B446     1.0000 0.16950  0.50000  0.22490  Biso   1.000  B 
  B447     1.0000 0.25800  0.50000  0.17950  Biso   1.000  B 
  B448     1.0000 0.35530  0.50000  0.20580  Biso   1.000  B 
  B449     1.0000 0.33050  0.50000  0.27510  Biso   1.000  B 
  B450     1.0000 0.29420  0.50000  0.14470  Biso   1.000  B 
  B451     1.0000 0.22490  0.50000  0.16950  Biso   1.000  B 
  B452     1.0000 0.34350  0.50000  0.15650  Biso   1.000  B 
  B453     1.0000 0.38280  0.50000  0.11720  Biso   1.000  B 
  O16      1.0000 0.40811  0.49334  0.22248  Biso   1.000  O 
  B454     1.0000 0.28510  0.50000  0.11140  Biso   1.000  B 
  B455     1.0000 0.42810  0.50000  0.13260  Biso   1.000  B 
  B456     1.0000 0.36740  0.50000  0.07190  Biso   1.000  B 
  C76      1.0000 0.41099  0.47049  0.27137  Biso   1.000  C 
  C77      1.0000 0.45951  0.44619  0.28786  Biso   1.000  C 
  H166     1.0000 0.38287  0.44027  0.27548  Biso   1.000  H 
  H167     1.0000 0.40479  0.50097  0.29872  Biso   1.000  H 
  H168     1.0000 0.45627  0.40804  0.27458  Biso   1.000  H 
  C78      1.0000 0.46379  0.43766  0.34516  Biso   1.000  C 
  H169     1.0000 0.49344  0.46223  0.27225  Biso   1.000  H 
  H170     1.0000 0.43364  0.41145  0.35724  Biso   1.000  H 
  H171     1.0000 0.45894  0.47297  0.36555  Biso   1.000  H 
  C79      1.0000 0.51500  0.41449  0.36150  Biso   1.000  C 
  H172     1.0000 0.51630  0.37567  0.34890  Biso   1.000  H 
  C80      1.0000 0.51744  0.41608  0.41856  Biso   1.000  C 
  H173     1.0000 0.54731  0.43491  0.34539  Biso   1.000  H 
  H174     1.0000 0.52618  0.45494  0.43011  Biso   1.000  H 
  H175     1.0000 0.54794  0.39173  0.43204  Biso   1.000  H 
  H176     1.0000 0.48208  0.40364  0.43607  Biso   1.000  H 
  B457     1.0000 0.07190  0.63260  0.50000  Biso   1.000  B 
  B458     1.0000 0.11720  0.61720  0.50000  Biso   1.000  B 
  B459     1.0000 0.13260  0.57190  0.50000  Biso   1.000  B 
  B460     1.0000 0.15650  0.65650  0.50000  Biso   1.000  B 
  B461     1.0000 0.14470  0.70580  0.50000  Biso   1.000  B 
  B462     1.0000 0.20580  0.64470  0.50000  Biso   1.000  B 
  B463     1.0000 0.17950  0.74200  0.50000  Biso   1.000  B 
  B464     1.0000 0.11140  0.71490  0.50000  Biso   1.000  B 
  B465     1.0000 0.24200  0.67950  0.50000  Biso   1.000  B 
  B466     1.0000 0.21490  0.61140  0.50000  Biso   1.000  B 
  B467     1.0000 0.23070  0.73070  0.50000  Biso   1.000  B 
  B468     1.0000 0.26930  0.76930  0.50000  Biso   1.000  B 
  B469     1.0000 0.16950  0.77510  0.50000  Biso   1.000  B 
  B470     1.0000 0.25800  0.82050  0.50000  Biso   1.000  B 
  B471     1.0000 0.27510  0.66950  0.50000  Biso   1.000  B 
  B472     1.0000 0.32050  0.75800  0.50000  Biso   1.000  B 
  B473     1.0000 0.29420  0.85530  0.50000  Biso   1.000  B 
  B474     1.0000 0.22490  0.83050  0.50000  Biso   1.000  B 
  B475     1.0000 0.35530  0.79420  0.50000  Biso   1.000  B 
  B476     1.0000 0.33050  0.72490  0.50000  Biso   1.000  B 
  B477     1.0000 0.34350  0.84350  0.50000  Biso   1.000  B 
  B478     1.0000 0.38280  0.88280  0.50000  Biso   1.000  B 
  O17      1.0000 0.27782  0.90792  0.50160  Biso   1.000  O 
  B479     1.0000 0.38860  0.78510  0.50000  Biso   1.000  B 
  B480     1.0000 0.36740  0.92810  0.50000  Biso   1.000  B 
  B481     1.0000 0.42810  0.86740  0.50000  Biso   1.000  B 
  C81      1.0000 0.25961  0.92058  0.55036  Biso   1.000  C 
  C82      1.0000 0.21354  0.95826  0.54720  Biso   1.000  C 
  H177     1.0000 0.29132  0.93560  0.57046  Biso   1.000  H 
  H178     1.0000 0.24685  0.88801  0.57118  Biso   1.000  H 
  H179     1.0000 0.23123  0.99563  0.54864  Biso   1.000  H 
  C83      1.0000 0.17619  0.95818  0.59223  Biso   1.000  C 
  H180     1.0000 0.19391  0.95502  0.51050  Biso   1.000  H 
  H181     1.0000 0.19249  0.94919  0.62803  Biso   1.000  H 
  H182     1.0000 0.14819  0.92910  0.58425  Biso   1.000  H 
  C84      1.0000 0.14470  0.00628  0.59269  Biso   1.000  C 
  H183     1.0000 0.16740  0.04111  0.59483  Biso   1.000  H 
  C85      1.0000 0.10790  0.00501  0.63815  Biso   1.000  C 
  H184     1.0000 0.12197  0.00635  0.55739  Biso   1.000  H 
  H185     1.0000 0.07166  0.98933  0.62461  Biso   1.000  H 
  H186     1.0000 0.09824  0.04386  0.65380  Biso   1.000  H 
  H187     1.0000 0.12011  0.97991  0.66909  Biso   1.000  H 
  B482     1.0000 0.07190  0.36740  0.50000  Biso   1.000  B 
  B483     1.0000 0.11720  0.38280  0.50000  Biso   1.000  B 
  B484     1.0000 0.13260  0.42810  0.50000  Biso   1.000  B 
  B485     1.0000 0.15650  0.34350  0.50000  Biso   1.000  B 
  B486     1.0000 0.14470  0.29420  0.50000  Biso   1.000  B 
  B487     1.0000 0.20580  0.35530  0.50000  Biso   1.000  B 
  B488     1.0000 0.17950  0.25800  0.50000  Biso   1.000  B 
  B489     1.0000 0.11140  0.28510  0.50000  Biso   1.000  B 
  B490     1.0000 0.24200  0.32050  0.50000  Biso   1.000  B 
  B491     1.0000 0.21490  0.38860  0.50000  Biso   1.000  B 
  B492     1.0000 0.23070  0.26930  0.50000  Biso   1.000  B 
  B493     1.0000 0.26930  0.23070  0.50000  Biso   1.000  B 
  B494     1.0000 0.16950  0.22490  0.50000  Biso   1.000  B 
  B495     1.0000 0.25800  0.17950  0.50000  Biso   1.000  B 
  B496     1.0000 0.27510  0.33050  0.50000  Biso   1.000  B 
  B497     1.0000 0.32050  0.24200  0.50000  Biso   1.000  B 
  B498     1.0000 0.29420  0.14470  0.50000  Biso   1.000  B 
  B499     1.0000 0.22490  0.16950  0.50000  Biso   1.000  B 
  B500     1.0000 0.35530  0.20580  0.50000  Biso   1.000  B 
  B501     1.0000 0.33050  0.27510  0.50000  Biso   1.000  B 
  B502     1.0000 0.34350  0.15650  0.50000  Biso   1.000  B 
  B503     1.0000 0.38280  0.11720  0.50000  Biso   1.000  B 
  O18      1.0000 0.27782  0.09208  0.49840  Biso   1.000  O 
  B504     1.0000 0.38860  0.21490  0.50000  Biso   1.000  B 
  B505     1.0000 0.36740  0.07190  0.50000  Biso   1.000  B 
  B506     1.0000 0.42810  0.13260  0.50000  Biso   1.000  B 
  C86      1.0000 0.25961  0.07942  0.44964  Biso   1.000  C 
  C87      1.0000 0.21354  0.04174  0.45280  Biso   1.000  C 
  H188     1.0000 0.29132  0.06440  0.42954  Biso   1.000  H 
  H189     1.0000 0.24685  0.11200  0.42882  Biso   1.000  H 
  H190     1.0000 0.23123  0.00437  0.45136  Biso   1.000  H 
  C88      1.0000 0.17619  0.04182  0.40777  Biso   1.000  C 
  H191     1.0000 0.19391  0.04498  0.48950  Biso   1.000  H 
  H192     1.0000 0.19249  0.05082  0.37197  Biso   1.000  H 
  H193     1.0000 0.14819  0.07090  0.41575  Biso   1.000  H 
  C89      1.0000 0.14470  0.99372  0.40731  Biso   1.000  C 
  H194     1.0000 0.16740  0.95889  0.40517  Biso   1.000  H 
  C90      1.0000 0.10790  0.99499  0.36185  Biso   1.000  C 
  H195     1.0000 0.12197  0.99365  0.44261  Biso   1.000  H 
  H196     1.0000 0.07166  0.01067  0.37539  Biso   1.000  H 
  H197     1.0000 0.09824  0.95615  0.34620  Biso   1.000  H 
  H198     1.0000 0.12011  0.02009  0.33091  Biso   1.000  H 
  B507     1.0000 0.92810  0.36740  0.50000  Biso   1.000  B 
  B508     1.0000 0.88280  0.38280  0.50000  Biso   1.000  B 
  B509     1.0000 0.86740  0.42810  0.50000  Biso   1.000  B 
  B510     1.0000 0.84350  0.34350  0.50000  Biso   1.000  B 
  B511     1.0000 0.85530  0.29420  0.50000  Biso   1.000  B 
  B512     1.0000 0.79420  0.35530  0.50000  Biso   1.000  B 
  B513     1.0000 0.82050  0.25800  0.50000  Biso   1.000  B 
  B514     1.0000 0.88860  0.28510  0.50000  Biso   1.000  B 
  B515     1.0000 0.75800  0.32050  0.50000  Biso   1.000  B 
  B516     1.0000 0.78510  0.38860  0.50000  Biso   1.000  B 
  B517     1.0000 0.76930  0.26930  0.50000  Biso   1.000  B 
  B518     1.0000 0.73070  0.23070  0.50000  Biso   1.000  B 
  B519     1.0000 0.83050  0.22490  0.50000  Biso   1.000  B 
  B520     1.0000 0.74200  0.17950  0.50000  Biso   1.000  B 
  B521     1.0000 0.72490  0.33050  0.50000  Biso   1.000  B 
  B522     1.0000 0.67950  0.24200  0.50000  Biso   1.000  B 
  B523     1.0000 0.70580  0.14470  0.50000  Biso   1.000  B 
  B524     1.0000 0.77510  0.16950  0.50000  Biso   1.000  B 
  B525     1.0000 0.64470  0.20580  0.50000  Biso   1.000  B 
  B526     1.0000 0.66950  0.27510  0.50000  Biso   1.000  B 
  B527     1.0000 0.65650  0.15650  0.50000  Biso   1.000  B 
  B528     1.0000 0.61720  0.11720  0.50000  Biso   1.000  B 
  O19      1.0000 0.72218  0.09208  0.50160  Biso   1.000  O 
  B529     1.0000 0.61140  0.21490  0.50000  Biso   1.000  B 
  B530     1.0000 0.63260  0.07190  0.50000  Biso   1.000  B 
  B531     1.0000 0.57190  0.13260  0.50000  Biso   1.000  B 
  C91      1.0000 0.74039  0.07942  0.55037  Biso   1.000  C 
  C92      1.0000 0.78645  0.04173  0.54721  Biso   1.000  C 
  H199     1.0000 0.70869  0.06441  0.57048  Biso   1.000  H 
  H200     1.0000 0.75317  0.11200  0.57117  Biso   1.000  H 
  H201     1.0000 0.76876  0.00437  0.54865  Biso   1.000  H 
  C93      1.0000 0.82381  0.04181  0.59223  Biso   1.000  C 
  H202     1.0000 0.80609  0.04496  0.51050  Biso   1.000  H 
  H203     1.0000 0.80751  0.05080  0.62803  Biso   1.000  H 
  H204     1.0000 0.85181  0.07089  0.58425  Biso   1.000  H 
  C94      1.0000 0.85530  0.99371  0.59269  Biso   1.000  C 
  H205     1.0000 0.83261  0.95887  0.59481  Biso   1.000  H 
  C95      1.0000 0.89210  0.99498  0.63816  Biso   1.000  C 
  H206     1.0000 0.87805  0.99366  0.55739  Biso   1.000  H 
  H207     1.0000 0.92835  0.01065  0.62461  Biso   1.000  H 
  H208     1.0000 0.90174  0.95614  0.65381  Biso   1.000  H 
  H209     1.0000 0.87989  0.02009  0.66909  Biso   1.000  H 
  B532     1.0000 0.92810  0.63260  0.50000  Biso   1.000  B 
  B533     1.0000 0.88280  0.61720  0.50000  Biso   1.000  B 
  B534     1.0000 0.86740  0.57190  0.50000  Biso   1.000  B 
  B535     1.0000 0.84350  0.65650  0.50000  Biso   1.000  B 
  B536     1.0000 0.85530  0.70580  0.50000  Biso   1.000  B 
  B537     1.0000 0.79420  0.64470  0.50000  Biso   1.000  B 
  B538     1.0000 0.82050  0.74200  0.50000  Biso   1.000  B 
  B539     1.0000 0.88860  0.71490  0.50000  Biso   1.000  B 
  B540     1.0000 0.75800  0.67950  0.50000  Biso   1.000  B 
  B541     1.0000 0.78510  0.61140  0.50000  Biso   1.000  B 
  B542     1.0000 0.76930  0.73070  0.50000  Biso   1.000  B 
  B543     1.0000 0.73070  0.76930  0.50000  Biso   1.000  B 
  B544     1.0000 0.83050  0.77510  0.50000  Biso   1.000  B 
  B545     1.0000 0.74200  0.82050  0.50000  Biso   1.000  B 
  B546     1.0000 0.72490  0.66950  0.50000  Biso   1.000  B 
  B547     1.0000 0.67950  0.75800  0.50000  Biso   1.000  B 
  B548     1.0000 0.70580  0.85530  0.50000  Biso   1.000  B 
  B549     1.0000 0.77510  0.83050  0.50000  Biso   1.000  B 
  B550     1.0000 0.64470  0.79420  0.50000  Biso   1.000  B 
  B551     1.0000 0.66950  0.72490  0.50000  Biso   1.000  B 
  B552     1.0000 0.65650  0.84350  0.50000  Biso   1.000  B 
  B553     1.0000 0.61720  0.88280  0.50000  Biso   1.000  B 
  O20      1.0000 0.72218  0.90792  0.49840  Biso   1.000  O 
  B554     1.0000 0.61140  0.78510  0.50000  Biso   1.000  B 
  B555     1.0000 0.63260  0.92810  0.50000  Biso   1.000  B 
  B556     1.0000 0.57190  0.86740  0.50000  Biso   1.000  B 
  C96      1.0000 0.74039  0.92058  0.44963  Biso   1.000  C 
  C97      1.0000 0.78645  0.95827  0.45279  Biso   1.000  C 
  H210     1.0000 0.70869  0.93559  0.42952  Biso   1.000  H 
  H211     1.0000 0.75317  0.88800  0.42883  Biso   1.000  H 
  H212     1.0000 0.76876  0.99563  0.45135  Biso   1.000  H 
  C98      1.0000 0.82381  0.95819  0.40777  Biso   1.000  C 
  H213     1.0000 0.80609  0.95503  0.48950  Biso   1.000  H 
  H214     1.0000 0.80751  0.94919  0.37197  Biso   1.000  H 
  H215     1.0000 0.85181  0.92911  0.41575  Biso   1.000  H 
  C99      1.0000 0.85530  0.00629  0.40731  Biso   1.000  C 
  H216     1.0000 0.83261  0.04112  0.40519  Biso   1.000  H 
  C100     1.0000 0.89210  0.00502  0.36184  Biso   1.000  C 
  H217     1.0000 0.87804  0.00635  0.44261  Biso   1.000  H 
  H218     1.0000 0.92834  0.98934  0.37539  Biso   1.000  H 
  H219     1.0000 0.90175  0.04386  0.34619  Biso   1.000  H 
  H220     1.0000 0.87989  0.97991  0.33091  Biso   1.000  H 
  B557     1.0000 0.50000  0.07190  0.63260  Biso   1.000  B 
  B558     1.0000 0.50000  0.11720  0.61720  Biso   1.000  B 
  B559     1.0000 0.50000  0.13260  0.57190  Biso   1.000  B 
  B560     1.0000 0.50000  0.15650  0.65650  Biso   1.000  B 
  B561     1.0000 0.50000  0.14470  0.70580  Biso   1.000  B 
  B562     1.0000 0.50000  0.20580  0.64470  Biso   1.000  B 
  B563     1.0000 0.50000  0.17950  0.74200  Biso   1.000  B 
  B564     1.0000 0.50000  0.11140  0.71490  Biso   1.000  B 
  B565     1.0000 0.50000  0.24200  0.67950  Biso   1.000  B 
  B566     1.0000 0.50000  0.21490  0.61140  Biso   1.000  B 
  B567     1.0000 0.50000  0.23070  0.73070  Biso   1.000  B 
  B568     1.0000 0.50000  0.26930  0.76930  Biso   1.000  B 
  B569     1.0000 0.50000  0.16950  0.77510  Biso   1.000  B 
  B570     1.0000 0.50000  0.25800  0.82050  Biso   1.000  B 
  B571     1.0000 0.50000  0.27510  0.66950  Biso   1.000  B 
  B572     1.0000 0.50000  0.32050  0.75800  Biso   1.000  B 
  B573     1.0000 0.50000  0.29420  0.85530  Biso   1.000  B 
  B574     1.0000 0.50000  0.22490  0.83050  Biso   1.000  B 
  B575     1.0000 0.50000  0.35530  0.79420  Biso   1.000  B 
  B576     1.0000 0.50000  0.33050  0.72490  Biso   1.000  B 
  B577     1.0000 0.50000  0.34350  0.84350  Biso   1.000  B 
  B578     1.0000 0.50000  0.38280  0.88280  Biso   1.000  B 
  O21      1.0000 0.50194  0.27869  0.90832  Biso   1.000  O 
  B579     1.0000 0.50000  0.38860  0.78510  Biso   1.000  B 
  B580     1.0000 0.50000  0.36740  0.92810  Biso   1.000  B 
  B581     1.0000 0.50000  0.42810  0.86740  Biso   1.000  B 
  C101     1.0000 0.54978  0.25744  0.91903  Biso   1.000  C 
  C102     1.0000 0.55080  0.21070  0.95431  Biso   1.000  C 
  H221     1.0000 0.56917  0.28881  0.93650  Biso   1.000  H 
  H222     1.0000 0.57107  0.24841  0.88472  Biso   1.000  H 
  H223     1.0000 0.56094  0.22489  0.99187  Biso   1.000  H 
  C103     1.0000 0.59346  0.17690  0.93701  Biso   1.000  C 
  H224     1.0000 0.51512  0.19026  0.95874  Biso   1.000  H 
  H225     1.0000 0.62824  0.19739  0.92883  Biso   1.000  H 
  H226     1.0000 0.57934  0.16039  0.90291  Biso   1.000  H 
  C104     1.0000 0.60647  0.13772  0.97564  Biso   1.000  C 
  H227     1.0000 0.61399  0.15565  0.01232  Biso   1.000  H 
  C105     1.0000 0.65023  0.10266  0.96259  Biso   1.000  C 
  H228     1.0000 0.57238  0.11517  0.98088  Biso   1.000  H 
  H229     1.0000 0.67019  0.09599  0.99833  Biso   1.000  H 
  H230     1.0000 0.67762  0.11874  0.93554  Biso   1.000  H 
  H231     1.0000 0.63560  0.06586  0.94956  Biso   1.000  H 
  B582     1.0000 0.50000  0.07190  0.36740  Biso   1.000  B 
  B583     1.0000 0.50000  0.11720  0.38280  Biso   1.000  B 
  B584     1.0000 0.50000  0.13260  0.42810  Biso   1.000  B 
  B585     1.0000 0.50000  0.15650  0.34350  Biso   1.000  B 
  B586     1.0000 0.50000  0.14470  0.29420  Biso   1.000  B 
  B587     1.0000 0.50000  0.20580  0.35530  Biso   1.000  B 
  B588     1.0000 0.50000  0.17950  0.25800  Biso   1.000  B 
  B589     1.0000 0.50000  0.11140  0.28510  Biso   1.000  B 
  B590     1.0000 0.50000  0.24200  0.32050  Biso   1.000  B 
  B591     1.0000 0.50000  0.21490  0.38860  Biso   1.000  B 
  B592     1.0000 0.50000  0.23070  0.26930  Biso   1.000  B 
  B593     1.0000 0.50000  0.26930  0.23070  Biso   1.000  B 
  B594     1.0000 0.50000  0.16950  0.22490  Biso   1.000  B 
  B595     1.0000 0.50000  0.25800  0.17950  Biso   1.000  B 
  B596     1.0000 0.50000  0.27510  0.33050  Biso   1.000  B 
  B597     1.0000 0.50000  0.32050  0.24200  Biso   1.000  B 
  B598     1.0000 0.50000  0.29420  0.14470  Biso   1.000  B 
  B599     1.0000 0.50000  0.22490  0.16950  Biso   1.000  B 
  B600     1.0000 0.50000  0.35530  0.20580  Biso   1.000  B 
  B601     1.0000 0.50000  0.33050  0.27510  Biso   1.000  B 
  B602     1.0000 0.50000  0.34350  0.15650  Biso   1.000  B 
  B603     1.0000 0.50000  0.38280  0.11720  Biso   1.000  B 
  O22      1.0000 0.49806  0.27869  0.09168  Biso   1.000  O 
  B604     1.0000 0.50000  0.38860  0.21490  Biso   1.000  B 
  B605     1.0000 0.50000  0.36740  0.07190  Biso   1.000  B 
  B606     1.0000 0.50000  0.42810  0.13260  Biso   1.000  B 
  C106     1.0000 0.45022  0.25744  0.08097  Biso   1.000  C 
  C107     1.0000 0.44920  0.21070  0.04569  Biso   1.000  C 
  H232     1.0000 0.43083  0.28881  0.06350  Biso   1.000  H 
  H233     1.0000 0.42893  0.24841  0.11528  Biso   1.000  H 
  H234     1.0000 0.43906  0.22489  0.00813  Biso   1.000  H 
  C108     1.0000 0.40655  0.17690  0.06299  Biso   1.000  C 
  H235     1.0000 0.48488  0.19026  0.04126  Biso   1.000  H 
  H236     1.0000 0.37176  0.19739  0.07117  Biso   1.000  H 
  H237     1.0000 0.42066  0.16039  0.09709  Biso   1.000  H 
  C109     1.0000 0.39353  0.13772  0.02436  Biso   1.000  C 
  H238     1.0000 0.38601  0.15565  0.98768  Biso   1.000  H 
  C110     1.0000 0.34977  0.10266  0.03741  Biso   1.000  C 
  H239     1.0000 0.42762  0.11517  0.01911  Biso   1.000  H 
  H240     1.0000 0.32981  0.09599  0.00166  Biso   1.000  H 
  H241     1.0000 0.32238  0.11874  0.06446  Biso   1.000  H 
  H242     1.0000 0.36440  0.06586  0.05044  Biso   1.000  H 
  B607     1.0000 0.50000  0.92810  0.36740  Biso   1.000  B 
  B608     1.0000 0.50000  0.88280  0.38280  Biso   1.000  B 
  B609     1.0000 0.50000  0.86740  0.42810  Biso   1.000  B 
  B610     1.0000 0.50000  0.84350  0.34350  Biso   1.000  B 
  B611     1.0000 0.50000  0.85530  0.29420  Biso   1.000  B 
  B612     1.0000 0.50000  0.79420  0.35530  Biso   1.000  B 
  B613     1.0000 0.50000  0.82050  0.25800  Biso   1.000  B 
  B614     1.0000 0.50000  0.88860  0.28510  Biso   1.000  B 
  B615     1.0000 0.50000  0.75800  0.32050  Biso   1.000  B 
  B616     1.0000 0.50000  0.78510  0.38860  Biso   1.000  B 
  B617     1.0000 0.50000  0.76930  0.26930  Biso   1.000  B 
  B618     1.0000 0.50000  0.73070  0.23070  Biso   1.000  B 
  B619     1.0000 0.50000  0.83050  0.22490  Biso   1.000  B 
  B620     1.0000 0.50000  0.74200  0.17950  Biso   1.000  B 
  B621     1.0000 0.50000  0.72490  0.33050  Biso   1.000  B 
  B622     1.0000 0.50000  0.67950  0.24200  Biso   1.000  B 
  B623     1.0000 0.50000  0.70580  0.14470  Biso   1.000  B 
  B624     1.0000 0.50000  0.77510  0.16950  Biso   1.000  B 
  B625     1.0000 0.50000  0.64470  0.20580  Biso   1.000  B 
  B626     1.0000 0.50000  0.66950  0.27510  Biso   1.000  B 
  B627     1.0000 0.50000  0.65650  0.15650  Biso   1.000  B 
  B628     1.0000 0.50000  0.61720  0.11720  Biso   1.000  B 
  O23      1.0000 0.50194  0.72130  0.09168  Biso   1.000  O 
  B629     1.0000 0.50000  0.61140  0.21490  Biso   1.000  B 
  B630     1.0000 0.50000  0.63260  0.07190  Biso   1.000  B 
  B631     1.0000 0.50000  0.57190  0.13260  Biso   1.000  B 
  C111     1.0000 0.54978  0.74256  0.08097  Biso   1.000  C 
  C112     1.0000 0.55080  0.78930  0.04569  Biso   1.000  C 
  H243     1.0000 0.56917  0.71119  0.06350  Biso   1.000  H 
  H244     1.0000 0.57107  0.75159  0.11528  Biso   1.000  H 
  H245     1.0000 0.56094  0.77511  0.00813  Biso   1.000  H 
  C113     1.0000 0.59346  0.82310  0.06299  Biso   1.000  C 
  H246     1.0000 0.51512  0.80973  0.04126  Biso   1.000  H 
  H247     1.0000 0.62824  0.80261  0.07116  Biso   1.000  H 
  H248     1.0000 0.57934  0.83960  0.09709  Biso   1.000  H 
  C114     1.0000 0.60646  0.86228  0.02436  Biso   1.000  C 
  H249     1.0000 0.61398  0.84435  0.98767  Biso   1.000  H 
  C115     1.0000 0.65023  0.89734  0.03742  Biso   1.000  C 
  H250     1.0000 0.57237  0.88483  0.01913  Biso   1.000  H 
  H251     1.0000 0.67019  0.90400  0.00166  Biso   1.000  H 
  H252     1.0000 0.67762  0.88126  0.06446  Biso   1.000  H 
  H253     1.0000 0.63560  0.93414  0.05044  Biso   1.000  H 
  B632     1.0000 0.50000  0.92810  0.63260  Biso   1.000  B 
  B633     1.0000 0.50000  0.88280  0.61720  Biso   1.000  B 
  B634     1.0000 0.50000  0.86740  0.57190  Biso   1.000  B 
  B635     1.0000 0.50000  0.84350  0.65650  Biso   1.000  B 
  B636     1.0000 0.50000  0.85530  0.70580  Biso   1.000  B 
  B637     1.0000 0.50000  0.79420  0.64470  Biso   1.000  B 
  B638     1.0000 0.50000  0.82050  0.74200  Biso   1.000  B 
  B639     1.0000 0.50000  0.88860  0.71490  Biso   1.000  B 
  B640     1.0000 0.50000  0.75800  0.67950  Biso   1.000  B 
  B641     1.0000 0.50000  0.78510  0.61140  Biso   1.000  B 
  B642     1.0000 0.50000  0.76930  0.73070  Biso   1.000  B 
  B643     1.0000 0.50000  0.73070  0.76930  Biso   1.000  B 
  B644     1.0000 0.50000  0.83050  0.77510  Biso   1.000  B 
  B645     1.0000 0.50000  0.74200  0.82050  Biso   1.000  B 
  B646     1.0000 0.50000  0.72490  0.66950  Biso   1.000  B 
  B647     1.0000 0.50000  0.67950  0.75800  Biso   1.000  B 
  B648     1.0000 0.50000  0.70580  0.85530  Biso   1.000  B 
  B649     1.0000 0.50000  0.77510  0.83050  Biso   1.000  B 
  B650     1.0000 0.50000  0.64470  0.79420  Biso   1.000  B 
  B651     1.0000 0.50000  0.66950  0.72490  Biso   1.000  B 
  B652     1.0000 0.50000  0.65650  0.84350  Biso   1.000  B 
  B653     1.0000 0.50000  0.61720  0.88280  Biso   1.000  B 
  O24      1.0000 0.49806  0.72130  0.90832  Biso   1.000  O 
  B654     1.0000 0.50000  0.61140  0.78510  Biso   1.000  B 
  B655     1.0000 0.50000  0.63260  0.92810  Biso   1.000  B 
  B656     1.0000 0.50000  0.57190  0.86740  Biso   1.000  B 
  C116     1.0000 0.45022  0.74256  0.91903  Biso   1.000  C 
  C117     1.0000 0.44920  0.78930  0.95431  Biso   1.000  C 
  H254     1.0000 0.43083  0.71119  0.93650  Biso   1.000  H 
  H255     1.0000 0.42893  0.75159  0.88472  Biso   1.000  H 
  H256     1.0000 0.43906  0.77511  0.99187  Biso   1.000  H 
  C118     1.0000 0.40654  0.82310  0.93701  Biso   1.000  C 
  H257     1.0000 0.48488  0.80973  0.95874  Biso   1.000  H 
  H258     1.0000 0.37176  0.80261  0.92883  Biso   1.000  H 
  H259     1.0000 0.42066  0.83960  0.90291  Biso   1.000  H 
  C119     1.0000 0.39354  0.86228  0.97564  Biso   1.000  C 
  H260     1.0000 0.38602  0.84435  0.01232  Biso   1.000  H 
  C120     1.0000 0.34977  0.89734  0.96259  Biso   1.000  C 
  H261     1.0000 0.42763  0.88483  0.98087  Biso   1.000  H 
  H262     1.0000 0.32981  0.90401  0.99833  Biso   1.000  H 
  H263     1.0000 0.32238  0.88126  0.93554  Biso   1.000  H 
  H264     1.0000 0.36440  0.93414  0.94956  Biso   1.000  H 
