data_image0
_cell_length_a       20.7004
_cell_length_b       20.7004
_cell_length_c       20.7004
_cell_angle_alpha    90
_cell_angle_beta     90
_cell_angle_gamma    90

_symmetry_space_group_name_H-M    "P 1"
_symmetry_int_tables_number       1

loop_
  _symmetry_equiv_pos_as_xyz
  'x, y, z'

loop_
  _atom_site_label
  _atom_site_occupancy
  _atom_site_fract_x
  _atom_site_fract_y
  _atom_site_fract_z
  _atom_site_thermal_displace_type
  _atom_site_B_iso_or_equiv
  _atom_site_type_symbol
  B1       1.0000 0.11989  0.00000  0.00000  Biso   1.000  B 
  B2       1.0000 0.11989  0.50000  0.50000  Biso   1.000  B 
  B3       1.0000 0.61989  0.00000  0.50000  Biso   1.000  B 
  B4       1.0000 0.61989  0.50000  0.00000  Biso   1.000  B 
  B5       1.0000 0.88011  0.00000  0.00000  Biso   1.000  B 
  B6       1.0000 0.88011  0.50000  0.50000  Biso   1.000  B 
  B7       1.0000 0.38011  0.00000  0.50000  Biso   1.000  B 
  B8       1.0000 0.38011  0.50000  0.00000  Biso   1.000  B 
  B9       1.0000 0.00000  0.11989  0.00000  Biso   1.000  B 
  B10      1.0000 0.00000  0.61989  0.50000  Biso   1.000  B 
  B11      1.0000 0.50000  0.11989  0.50000  Biso   1.000  B 
  B12      1.0000 0.50000  0.61989  0.00000  Biso   1.000  B 
  B13      1.0000 0.00000  0.88011  0.00000  Biso   1.000  B 
  B14      1.0000 0.00000  0.38011  0.50000  Biso   1.000  B 
  B15      1.0000 0.50000  0.88011  0.50000  Biso   1.000  B 
  B16      1.0000 0.50000  0.38011  0.00000  Biso   1.000  B 
  B17      1.0000 0.00000  0.00000  0.11989  Biso   1.000  B 
  B18      1.0000 0.00000  0.50000  0.61989  Biso   1.000  B 
  B19      1.0000 0.50000  0.00000  0.61989  Biso   1.000  B 
  B20      1.0000 0.50000  0.50000  0.11989  Biso   1.000  B 
  B21      1.0000 0.00000  0.00000  0.88011  Biso   1.000  B 
  B22      1.0000 0.00000  0.50000  0.38011  Biso   1.000  B 
  B23      1.0000 0.50000  0.00000  0.38011  Biso   1.000  B 
  B24      1.0000 0.50000  0.50000  0.88011  Biso   1.000  B 
  B25      1.0000 0.05610  0.44390  0.44390  Biso   1.000  B 
  B26      1.0000 0.55610  0.94390  0.44390  Biso   1.000  B 
  B27      1.0000 0.55610  0.44390  0.94390  Biso   1.000  B 
  B28      1.0000 0.44390  0.05610  0.44390  Biso   1.000  B 
  B29      1.0000 0.44390  0.55610  0.94390  Biso   1.000  B 
  B30      1.0000 0.94390  0.94390  0.05610  Biso   1.000  B 
  B31      1.0000 0.94390  0.44390  0.55610  Biso   1.000  B 
  B32      1.0000 0.05610  0.05610  0.05610  Biso   1.000  B 
  B33      1.0000 0.55610  0.55610  0.05610  Biso   1.000  B 
  B34      1.0000 0.94390  0.05610  0.05610  Biso   1.000  B 
  B35      1.0000 0.94390  0.55610  0.55610  Biso   1.000  B 
  B36      1.0000 0.44390  0.05610  0.55610  Biso   1.000  B 
  B37      1.0000 0.44390  0.55610  0.05610  Biso   1.000  B 
  B38      1.0000 0.05610  0.94390  0.05610  Biso   1.000  B 
  B39      1.0000 0.05610  0.44390  0.55610  Biso   1.000  B 
  B40      1.0000 0.55610  0.94390  0.55610  Biso   1.000  B 
  B41      1.0000 0.55610  0.44390  0.05610  Biso   1.000  B 
  B42      1.0000 0.94390  0.94390  0.94390  Biso   1.000  B 
  B43      1.0000 0.94390  0.44390  0.44390  Biso   1.000  B 
  B44      1.0000 0.44390  0.94390  0.44390  Biso   1.000  B 
  B45      1.0000 0.44390  0.44390  0.94390  Biso   1.000  B 
  B46      1.0000 0.05610  0.05610  0.94390  Biso   1.000  B 
  B47      1.0000 0.05610  0.55610  0.44390  Biso   1.000  B 
  B48      1.0000 0.55610  0.05610  0.44390  Biso   1.000  B 
  B49      1.0000 0.15360  0.00000  0.84640  Biso   1.000  B 
  B50      1.0000 0.17046  0.00000  0.90471  Biso   1.000  B 
  B51      1.0000 0.09529  0.00000  0.82954  Biso   1.000  B 
  B52      1.0000 0.20500  0.00000  0.79500  Biso   1.000  B 
  B53      1.0000 0.18437  0.00000  0.73249  Biso   1.000  B 
  B54      1.0000 0.13046  0.00000  0.72128  Biso   1.000  B 
  O1       1.0000 0.21662  0.02472  0.62307  Biso   1.000  O 
  B55      1.0000 0.23249  0.00000  0.68442  Biso   1.000  B 
  B56      1.0000 0.29500  0.00000  0.70500  Biso   1.000  B 
  B57      1.0000 0.31558  0.00000  0.76751  Biso   1.000  B 
  B58      1.0000 0.26751  0.00000  0.81563  Biso   1.000  B 
  B59      1.0000 0.27872  0.00000  0.86954  Biso   1.000  B 
  B60      1.0000 0.36949  0.00000  0.77872  Biso   1.000  B 
  B61      1.0000 0.40470  0.00000  0.67046  Biso   1.000  B 
  B62      1.0000 0.34640  0.00000  0.65360  Biso   1.000  B 
  B63      1.0000 0.32954  0.00000  0.59529  Biso   1.000  B 
  C1       1.0000 0.18050  0.97837  0.59102  Biso   1.000  C 
  C2       1.0000 0.19015  0.98660  0.51944  Biso   1.000  C 
  H1       1.0000 0.12982  0.99142  0.60121  Biso   1.000  H 
  H2       1.0000 0.18967  0.92711  0.60523  Biso   1.000  H 
  H3       1.0000 0.18553  0.03649  0.51059  Biso   1.000  H 
  C3       1.0000 0.13263  0.95052  0.48701  Biso   1.000  C 
  H4       1.0000 0.23923  0.96982  0.50563  Biso   1.000  H 
  H5       1.0000 0.08787  0.97995  0.48997  Biso   1.000  H 
  H6       1.0000 0.12348  0.90659  0.51308  Biso   1.000  H 
  C4       1.0000 0.14609  0.93407  0.41808  Biso   1.000  C 
  H7       1.0000 0.13750  0.98166  0.39599  Biso   1.000  H 
  H8       1.0000 0.11639  0.89748  0.39431  Biso   1.000  H 
  H9       1.0000 0.19786  0.91770  0.41482  Biso   1.000  H 
  B64      1.0000 0.15360  0.50000  0.34640  Biso   1.000  B 
  B65      1.0000 0.17046  0.50000  0.40471  Biso   1.000  B 
  B66      1.0000 0.09529  0.50000  0.32954  Biso   1.000  B 
  B67      1.0000 0.20500  0.50000  0.29500  Biso   1.000  B 
  B68      1.0000 0.18437  0.50000  0.23249  Biso   1.000  B 
  B69      1.0000 0.13046  0.50000  0.22128  Biso   1.000  B 
  O2       1.0000 0.21523  0.53214  0.12583  Biso   1.000  O 
  B70      1.0000 0.23249  0.50000  0.18442  Biso   1.000  B 
  B71      1.0000 0.29500  0.50000  0.20500  Biso   1.000  B 
  B72      1.0000 0.31558  0.50000  0.26751  Biso   1.000  B 
  B73      1.0000 0.26751  0.50000  0.31563  Biso   1.000  B 
  B74      1.0000 0.27872  0.50000  0.36954  Biso   1.000  B 
  B75      1.0000 0.36949  0.50000  0.27872  Biso   1.000  B 
  B76      1.0000 0.40470  0.50000  0.17046  Biso   1.000  B 
  B77      1.0000 0.34640  0.50000  0.15360  Biso   1.000  B 
  B78      1.0000 0.32954  0.50000  0.09529  Biso   1.000  B 
  C5       1.0000 0.20188  0.49270  0.07402  Biso   1.000  C 
  C6       1.0000 0.12960  0.49013  0.06716  Biso   1.000  C 
  H10      1.0000 0.22323  0.44359  0.08043  Biso   1.000  H 
  H11      1.0000 0.22655  0.51794  0.03487  Biso   1.000  H 
  H12      1.0000 0.11161  0.47187  0.11183  Biso   1.000  H 
  C7       1.0000 0.11398  0.44640  0.01274  Biso   1.000  C 
  H13      1.0000 0.11154  0.53926  0.06014  Biso   1.000  H 
  H14      1.0000 0.06274  0.44905  0.00794  Biso   1.000  H 
  H15      1.0000 0.12315  0.39961  0.03203  Biso   1.000  H 
  C8       1.0000 0.15310  0.46219  0.95058  Biso   1.000  C 
  H16      1.0000 0.14529  0.51279  0.93670  Biso   1.000  H 
  H17      1.0000 0.13704  0.42966  0.91218  Biso   1.000  H 
  H18      1.0000 0.20571  0.45613  0.95386  Biso   1.000  H 
  B79      1.0000 0.65360  0.00000  0.34640  Biso   1.000  B 
  B80      1.0000 0.67046  0.00000  0.40471  Biso   1.000  B 
  B81      1.0000 0.59529  0.00000  0.32954  Biso   1.000  B 
  B82      1.0000 0.70500  0.00000  0.29500  Biso   1.000  B 
  B83      1.0000 0.68437  0.00000  0.23249  Biso   1.000  B 
  B84      1.0000 0.63046  0.00000  0.22128  Biso   1.000  B 
  O3       1.0000 0.71478  0.02547  0.12276  Biso   1.000  O 
  B85      1.0000 0.73248  0.00000  0.18442  Biso   1.000  B 
  B86      1.0000 0.79499  0.00000  0.20500  Biso   1.000  B 
  B87      1.0000 0.81558  0.00000  0.26751  Biso   1.000  B 
  B88      1.0000 0.76751  0.00000  0.31563  Biso   1.000  B 
  B89      1.0000 0.77872  0.00000  0.36954  Biso   1.000  B 
  B90      1.0000 0.86949  0.00000  0.27872  Biso   1.000  B 
  B91      1.0000 0.90470  0.00000  0.17046  Biso   1.000  B 
  B92      1.0000 0.84639  0.00000  0.15360  Biso   1.000  B 
  B93      1.0000 0.82953  0.00000  0.09529  Biso   1.000  B 
  C9       1.0000 0.69046  0.97176  0.08982  Biso   1.000  C 
  C10      1.0000 0.62401  0.98993  0.06676  Biso   1.000  C 
  H19      1.0000 0.67846  0.92654  0.11798  Biso   1.000  H 
  H20      1.0000 0.72668  0.95908  0.05370  Biso   1.000  H 
  H21      1.0000 0.59042  0.97459  0.10527  Biso   1.000  H 
  C11      1.0000 0.60814  0.95465  0.00405  Biso   1.000  C 
  H22      1.0000 0.62160  0.04196  0.06183  Biso   1.000  H 
  H23      1.0000 0.55696  0.95784  0.99068  Biso   1.000  H 
  H24      1.0000 0.61691  0.90284  0.01333  Biso   1.000  H 
  C12      1.0000 0.64863  0.97826  0.94794  Biso   1.000  C 
  H25      1.0000 0.63630  0.02698  0.93255  Biso   1.000  H 
  H26      1.0000 0.64246  0.94787  0.90567  Biso   1.000  H 
  H27      1.0000 0.69965  0.97459  0.96397  Biso   1.000  H 
  B94      1.0000 0.65360  0.50000  0.84640  Biso   1.000  B 
  B95      1.0000 0.67046  0.50000  0.90471  Biso   1.000  B 
  B96      1.0000 0.59529  0.50000  0.82954  Biso   1.000  B 
  B97      1.0000 0.70500  0.50000  0.79500  Biso   1.000  B 
  B98      1.0000 0.68437  0.50000  0.73249  Biso   1.000  B 
  B99      1.0000 0.63046  0.50000  0.72128  Biso   1.000  B 
  O4       1.0000 0.71719  0.52242  0.62091  Biso   1.000  O 
  B100     1.0000 0.73248  0.50000  0.68442  Biso   1.000  B 
  B101     1.0000 0.79499  0.50000  0.70500  Biso   1.000  B 
  B102     1.0000 0.81558  0.50000  0.76751  Biso   1.000  B 
  B103     1.0000 0.76751  0.50000  0.81563  Biso   1.000  B 
  B104     1.0000 0.77872  0.50000  0.86954  Biso   1.000  B 
  B105     1.0000 0.86949  0.50000  0.77872  Biso   1.000  B 
  B106     1.0000 0.90470  0.50000  0.67046  Biso   1.000  B 
  B107     1.0000 0.84639  0.50000  0.65360  Biso   1.000  B 
  B108     1.0000 0.82953  0.50000  0.59529  Biso   1.000  B 
  C13      1.0000 0.69657  0.47113  0.58636  Biso   1.000  C 
  C14      1.0000 0.63341  0.49528  0.56063  Biso   1.000  C 
  H28      1.0000 0.68285  0.42376  0.61130  Biso   1.000  H 
  H29      1.0000 0.73322  0.46213  0.54819  Biso   1.000  H 
  H30      1.0000 0.60014  0.49132  0.60293  Biso   1.000  H 
  C15      1.0000 0.60847  0.45271  0.50653  Biso   1.000  C 
  H31      1.0000 0.63961  0.54639  0.54998  Biso   1.000  H 
  H32      1.0000 0.55826  0.46442  0.49976  Biso   1.000  H 
  H33      1.0000 0.61229  0.40208  0.52395  Biso   1.000  H 
  C16      1.0000 0.63841  0.46450  0.44460  Biso   1.000  C 
  H34      1.0000 0.63748  0.51643  0.43001  Biso   1.000  H 
  H35      1.0000 0.61290  0.43485  0.40688  Biso   1.000  H 
  H36      1.0000 0.68993  0.44780  0.44645  Biso   1.000  H 
  B109     1.0000 0.84640  0.00000  0.84640  Biso   1.000  B 
  B110     1.0000 0.82954  0.00000  0.90471  Biso   1.000  B 
  B111     1.0000 0.90471  0.00000  0.82954  Biso   1.000  B 
  B112     1.0000 0.79500  0.00000  0.79500  Biso   1.000  B 
  B113     1.0000 0.81563  0.00000  0.73249  Biso   1.000  B 
  B114     1.0000 0.86954  0.00000  0.72128  Biso   1.000  B 
  O5       1.0000 0.78526  0.02120  0.62113  Biso   1.000  O 
  B115     1.0000 0.76752  0.00000  0.68442  Biso   1.000  B 
  B116     1.0000 0.70501  0.00000  0.70500  Biso   1.000  B 
  B117     1.0000 0.68442  0.00000  0.76751  Biso   1.000  B 
  B118     1.0000 0.73249  0.00000  0.81563  Biso   1.000  B 
  B119     1.0000 0.72128  0.00000  0.86954  Biso   1.000  B 
  B120     1.0000 0.63051  0.00000  0.77872  Biso   1.000  B 
  B121     1.0000 0.59530  0.00000  0.67046  Biso   1.000  B 
  B122     1.0000 0.65361  0.00000  0.65360  Biso   1.000  B 
  B123     1.0000 0.67047  0.00000  0.59529  Biso   1.000  B 
  C17      1.0000 0.79046  0.96950  0.57798  Biso   1.000  C 
  C18      1.0000 0.77631  0.99411  0.50986  Biso   1.000  C 
  H37      1.0000 0.75815  0.92869  0.58960  Biso   1.000  H 
  H38      1.0000 0.83869  0.95123  0.57145  Biso   1.000  H 
  H39      1.0000 0.76044  0.95973  0.47507  Biso   1.000  H 
  C19      1.0000 0.82892  0.03156  0.47881  Biso   1.000  C 
  H40      1.0000 0.73827  0.02547  0.51636  Biso   1.000  H 
  H41      1.0000 0.85382  0.05502  0.51989  Biso   1.000  H 
  H42      1.0000 0.80997  0.06571  0.44182  Biso   1.000  H 
  C20      1.0000 0.87408  0.99105  0.44083  Biso   1.000  C 
  H43      1.0000 0.85791  0.94066  0.43214  Biso   1.000  H 
  H44      1.0000 0.91715  0.99249  0.47102  Biso   1.000  H 
  H45      1.0000 0.88584  0.01168  0.39339  Biso   1.000  H 
  B124     1.0000 0.84640  0.50000  0.34640  Biso   1.000  B 
  B125     1.0000 0.82954  0.50000  0.40471  Biso   1.000  B 
  B126     1.0000 0.90471  0.50000  0.32954  Biso   1.000  B 
  B127     1.0000 0.79500  0.50000  0.29500  Biso   1.000  B 
  B128     1.0000 0.81563  0.50000  0.23249  Biso   1.000  B 
  B129     1.0000 0.86954  0.50000  0.22128  Biso   1.000  B 
  O6       1.0000 0.78694  0.52325  0.11979  Biso   1.000  O 
  B130     1.0000 0.76752  0.50000  0.18442  Biso   1.000  B 
  B131     1.0000 0.70501  0.50000  0.20500  Biso   1.000  B 
  B132     1.0000 0.68442  0.50000  0.26751  Biso   1.000  B 
  B133     1.0000 0.73249  0.50000  0.31563  Biso   1.000  B 
  B134     1.0000 0.72128  0.50000  0.36954  Biso   1.000  B 
  B135     1.0000 0.63051  0.50000  0.27872  Biso   1.000  B 
  B136     1.0000 0.59530  0.50000  0.17046  Biso   1.000  B 
  B137     1.0000 0.65361  0.50000  0.15360  Biso   1.000  B 
  B138     1.0000 0.67047  0.50000  0.09529  Biso   1.000  B 
  C21      1.0000 0.79339  0.47192  0.07462  Biso   1.000  C 
  C22      1.0000 0.78338  0.49853  0.00472  Biso   1.000  C 
  H46      1.0000 0.75924  0.43186  0.08402  Biso   1.000  H 
  H47      1.0000 0.83942  0.45167  0.07127  Biso   1.000  H 
  H48      1.0000 0.76997  0.46063  0.96790  Biso   1.000  H 
  C23      1.0000 0.84280  0.53569  0.98045  Biso   1.000  C 
  H49      1.0000 0.74548  0.53070  0.00635  Biso   1.000  H 
  H50      1.0000 0.86629  0.55473  0.02554  Biso   1.000  H 
  H51      1.0000 0.83288  0.57617  0.94801  Biso   1.000  H 
  C24      1.0000 0.88514  0.50036  0.93618  Biso   1.000  C 
  H52      1.0000 0.87007  0.44929  0.93413  Biso   1.000  H 
  H53      1.0000 0.93286  0.50785  0.95882  Biso   1.000  H 
  H54      1.0000 0.88871  0.51845  0.88553  Biso   1.000  H 
  B139     1.0000 0.34640  0.00000  0.34640  Biso   1.000  B 
  B140     1.0000 0.32954  0.00000  0.40471  Biso   1.000  B 
  B141     1.0000 0.40471  0.00000  0.32954  Biso   1.000  B 
  B142     1.0000 0.29500  0.00000  0.29500  Biso   1.000  B 
  B143     1.0000 0.31563  0.00000  0.23249  Biso   1.000  B 
  B144     1.0000 0.36954  0.00000  0.22128  Biso   1.000  B 
  O7       1.0000 0.28324  0.02241  0.11855  Biso   1.000  O 
  B145     1.0000 0.26751  0.00000  0.18442  Biso   1.000  B 
  B146     1.0000 0.20500  0.00000  0.20500  Biso   1.000  B 
  B147     1.0000 0.18442  0.00000  0.26751  Biso   1.000  B 
  B148     1.0000 0.23249  0.00000  0.31563  Biso   1.000  B 
  B149     1.0000 0.22128  0.00000  0.36954  Biso   1.000  B 
  B150     1.0000 0.13051  0.00000  0.27872  Biso   1.000  B 
  B151     1.0000 0.09530  0.00000  0.17046  Biso   1.000  B 
  B152     1.0000 0.15360  0.00000  0.15360  Biso   1.000  B 
  B153     1.0000 0.17046  0.00000  0.09529  Biso   1.000  B 
  C25      1.0000 0.29232  0.97073  0.07531  Biso   1.000  C 
  C26      1.0000 0.27889  0.99121  0.00490  Biso   1.000  C 
  H55      1.0000 0.26041  0.92879  0.08751  Biso   1.000  H 
  H56      1.0000 0.34314  0.95361  0.07839  Biso   1.000  H 
  H57      1.0000 0.27080  0.95278  0.97048  Biso   1.000  H 
  C27      1.0000 0.32723  0.03575  0.97756  Biso   1.000  C 
  H58      1.0000 0.23427  0.01659  0.00743  Biso   1.000  H 
  H59      1.0000 0.34511  0.06900  0.01656  Biso   1.000  H 
  H60      1.0000 0.30137  0.06239  0.94111  Biso   1.000  H 
  C28      1.0000 0.37906  0.00442  0.93918  Biso   1.000  C 
  H61      1.0000 0.37055  0.95297  0.92523  Biso   1.000  H 
  H62      1.0000 0.42260  0.00965  0.96840  Biso   1.000  H 
  H63      1.0000 0.38629  0.02820  0.89360  Biso   1.000  H 
  B154     1.0000 0.34640  0.50000  0.84640  Biso   1.000  B 
  B155     1.0000 0.32954  0.50000  0.90471  Biso   1.000  B 
  B156     1.0000 0.40471  0.50000  0.82954  Biso   1.000  B 
  B157     1.0000 0.29500  0.50000  0.79500  Biso   1.000  B 
  B158     1.0000 0.31563  0.50000  0.73249  Biso   1.000  B 
  B159     1.0000 0.36954  0.50000  0.72128  Biso   1.000  B 
  O8       1.0000 0.28592  0.51784  0.62031  Biso   1.000  O 
  B160     1.0000 0.26751  0.50000  0.68442  Biso   1.000  B 
  B161     1.0000 0.20500  0.50000  0.70500  Biso   1.000  B 
  B162     1.0000 0.18442  0.50000  0.76751  Biso   1.000  B 
  B163     1.0000 0.23249  0.50000  0.81563  Biso   1.000  B 
  B164     1.0000 0.22128  0.50000  0.86954  Biso   1.000  B 
  B165     1.0000 0.13051  0.50000  0.77872  Biso   1.000  B 
  B166     1.0000 0.09530  0.50000  0.67046  Biso   1.000  B 
  B167     1.0000 0.15360  0.50000  0.65360  Biso   1.000  B 
  B168     1.0000 0.17046  0.50000  0.59529  Biso   1.000  B 
  C29      1.0000 0.29205  0.46626  0.57834  Biso   1.000  C 
  C30      1.0000 0.27759  0.48980  0.50758  Biso   1.000  C 
  H64      1.0000 0.25421  0.42932  0.59017  Biso   1.000  H 
  H65      1.0000 0.33822  0.43998  0.58142  Biso   1.000  H 
  H66      1.0000 0.26416  0.45666  0.46969  Biso   1.000  H 
  C31      1.0000 0.32608  0.53198  0.47394  Biso   1.000  C 
  H67      1.0000 0.23811  0.52088  0.51351  Biso   1.000  H 
  H68      1.0000 0.34858  0.56389  0.50867  Biso   1.000  H 
  H69      1.0000 0.29598  0.56079  0.43876  Biso   1.000  H 
  C32      1.0000 0.37759  0.50095  0.43775  Biso   1.000  C 
  H70      1.0000 0.36445  0.45184  0.42285  Biso   1.000  H 
  H71      1.0000 0.41648  0.50012  0.47047  Biso   1.000  H 
  H72      1.0000 0.39298  0.52993  0.39558  Biso   1.000  H 
  B169     1.0000 0.84640  0.15360  0.00000  Biso   1.000  B 
  B170     1.0000 0.90471  0.17046  0.00000  Biso   1.000  B 
  B171     1.0000 0.82954  0.09529  0.00000  Biso   1.000  B 
  B172     1.0000 0.79500  0.20500  0.00000  Biso   1.000  B 
  B173     1.0000 0.73249  0.18437  0.00000  Biso   1.000  B 
  B174     1.0000 0.72128  0.13046  0.00000  Biso   1.000  B 
  O9       1.0000 0.62669  0.21654  0.03743  Biso   1.000  O 
  B175     1.0000 0.68442  0.23249  0.00000  Biso   1.000  B 
  B176     1.0000 0.70500  0.29500  0.00000  Biso   1.000  B 
  B177     1.0000 0.76751  0.31558  0.00000  Biso   1.000  B 
  B178     1.0000 0.81563  0.26751  0.00000  Biso   1.000  B 
  B179     1.0000 0.86954  0.27872  0.00000  Biso   1.000  B 
  B180     1.0000 0.77872  0.36949  0.00000  Biso   1.000  B 
  B181     1.0000 0.67046  0.40470  0.00000  Biso   1.000  B 
  B182     1.0000 0.65360  0.34640  0.00000  Biso   1.000  B 
  B183     1.0000 0.59529  0.32954  0.00000  Biso   1.000  B 
  C33      1.0000 0.57875  0.20277  0.99613  Biso   1.000  C 
  C34      1.0000 0.57019  0.13336  0.00006  Biso   1.000  C 
  H73      1.0000 0.58597  0.21861  0.94401  Biso   1.000  H 
  H74      1.0000 0.53698  0.22793  0.01585  Biso   1.000  H 
  H75      1.0000 0.61797  0.11101  0.98786  Biso   1.000  H 
  C35      1.0000 0.51642  0.10650  0.95708  Biso   1.000  C 
  H76      1.0000 0.55715  0.12315  0.04986  Biso   1.000  H 
  H77      1.0000 0.51486  0.05634  0.96966  Biso   1.000  H 
  H78      1.0000 0.53492  0.11167  0.90648  Biso   1.000  H 
  C36      1.0000 0.44977  0.13920  0.96956  Biso   1.000  C 
  H79      1.0000 0.43723  0.13602  0.02055  Biso   1.000  H 
  H80      1.0000 0.40909  0.12042  0.94279  Biso   1.000  H 
  H81      1.0000 0.45430  0.19143  0.95448  Biso   1.000  H 
  B184     1.0000 0.84640  0.65360  0.50000  Biso   1.000  B 
  B185     1.0000 0.90471  0.67046  0.50000  Biso   1.000  B 
  B186     1.0000 0.82954  0.59529  0.50000  Biso   1.000  B 
  B187     1.0000 0.79500  0.70500  0.50000  Biso   1.000  B 
  B188     1.0000 0.73249  0.68437  0.50000  Biso   1.000  B 
  B189     1.0000 0.72128  0.63046  0.50000  Biso   1.000  B 
  O10      1.0000 0.62202  0.71641  0.52199  Biso   1.000  O 
  B190     1.0000 0.68442  0.73248  0.50000  Biso   1.000  B 
  B191     1.0000 0.70500  0.79499  0.50000  Biso   1.000  B 
  B192     1.0000 0.76751  0.81558  0.50000  Biso   1.000  B 
  B193     1.0000 0.81563  0.76751  0.50000  Biso   1.000  B 
  B194     1.0000 0.86954  0.77872  0.50000  Biso   1.000  B 
  B195     1.0000 0.77872  0.86949  0.50000  Biso   1.000  B 
  B196     1.0000 0.67046  0.90470  0.50000  Biso   1.000  B 
  B197     1.0000 0.65360  0.84639  0.50000  Biso   1.000  B 
  B198     1.0000 0.59529  0.82953  0.50000  Biso   1.000  B 
  C37      1.0000 0.58734  0.69781  0.47098  Biso   1.000  C 
  C38      1.0000 0.56574  0.63386  0.49301  Biso   1.000  C 
  H82      1.0000 0.61339  0.68779  0.42342  Biso   1.000  H 
  H83      1.0000 0.54843  0.73201  0.46581  Biso   1.000  H 
  H84      1.0000 0.60450  0.59837  0.48296  Biso   1.000  H 
  C39      1.0000 0.51307  0.60991  0.45340  Biso   1.000  C 
  H85      1.0000 0.55224  0.63764  0.54350  Biso   1.000  H 
  H86      1.0000 0.50505  0.56157  0.46905  Biso   1.000  H 
  H87      1.0000 0.53001  0.60810  0.40206  Biso   1.000  H 
  C40      1.0000 0.45285  0.64540  0.46604  Biso   1.000  C 
  H88      1.0000 0.43928  0.63749  0.51601  Biso   1.000  H 
  H89      1.0000 0.41416  0.63010  0.43137  Biso   1.000  H 
  H90      1.0000 0.45747  0.69983  0.45962  Biso   1.000  H 
  B199     1.0000 0.34640  0.15360  0.50000  Biso   1.000  B 
  B200     1.0000 0.40471  0.17046  0.50000  Biso   1.000  B 
  B201     1.0000 0.32954  0.09529  0.50000  Biso   1.000  B 
  B202     1.0000 0.29500  0.20500  0.50000  Biso   1.000  B 
  B203     1.0000 0.23249  0.18437  0.50000  Biso   1.000  B 
  B204     1.0000 0.22128  0.13046  0.50000  Biso   1.000  B 
  O11      1.0000 0.12474  0.21747  0.53212  Biso   1.000  O 
  B205     1.0000 0.18442  0.23249  0.50000  Biso   1.000  B 
  B206     1.0000 0.20500  0.29500  0.50000  Biso   1.000  B 
  B207     1.0000 0.26751  0.31558  0.50000  Biso   1.000  B 
  B208     1.0000 0.31563  0.26751  0.50000  Biso   1.000  B 
  B209     1.0000 0.36954  0.27872  0.50000  Biso   1.000  B 
  B210     1.0000 0.27872  0.36949  0.50000  Biso   1.000  B 
  B211     1.0000 0.17046  0.40470  0.50000  Biso   1.000  B 
  B212     1.0000 0.15360  0.34640  0.50000  Biso   1.000  B 
  B213     1.0000 0.09529  0.32954  0.50000  Biso   1.000  B 
  C41      1.0000 0.08601  0.18102  0.49235  Biso   1.000  C 
  C42      1.0000 0.06267  0.12408  0.53606  Biso   1.000  C 
  H91      1.0000 0.11079  0.15873  0.44992  Biso   1.000  H 
  H92      1.0000 0.04987  0.21680  0.47382  Biso   1.000  H 
  H93      1.0000 0.10342  0.09141  0.54813  Biso   1.000  H 
  C43      1.0000 0.00671  0.08842  0.50424  Biso   1.000  C 
  H94      1.0000 0.04445  0.14734  0.58024  Biso   1.000  H 
  H95      1.0000 0.99615  0.04473  0.53490  Biso   1.000  H 
  H96      1.0000 0.02407  0.06911  0.45702  Biso   1.000  H 
  C44      1.0000 0.94853  0.13262  0.49374  Biso   1.000  C 
  H97      1.0000 0.92243  0.14059  0.53802  Biso   1.000  H 
  H98      1.0000 0.91484  0.10948  0.45890  Biso   1.000  H 
  H99      1.0000 0.96252  0.17708  0.47149  Biso   1.000  H 
  B214     1.0000 0.34640  0.65360  0.00000  Biso   1.000  B 
  B215     1.0000 0.40471  0.67046  0.00000  Biso   1.000  B 
  B216     1.0000 0.32954  0.59529  0.00000  Biso   1.000  B 
  B217     1.0000 0.29500  0.70500  0.00000  Biso   1.000  B 
  B218     1.0000 0.23249  0.68437  0.00000  Biso   1.000  B 
  B219     1.0000 0.22128  0.63046  0.00000  Biso   1.000  B 
  O12      1.0000 0.11827  0.71465  0.99909  Biso   1.000  O 
  B220     1.0000 0.18442  0.73248  0.00000  Biso   1.000  B 
  B221     1.0000 0.20500  0.79499  0.00000  Biso   1.000  B 
  B222     1.0000 0.26751  0.81558  0.00000  Biso   1.000  B 
  B223     1.0000 0.31563  0.76751  0.00000  Biso   1.000  B 
  B224     1.0000 0.36954  0.77872  0.00000  Biso   1.000  B 
  B225     1.0000 0.27872  0.86949  0.00000  Biso   1.000  B 
  B226     1.0000 0.17046  0.90470  0.00000  Biso   1.000  B 
  B227     1.0000 0.15360  0.84639  0.00000  Biso   1.000  B 
  B228     1.0000 0.09529  0.82953  0.00000  Biso   1.000  B 
  C45      1.0000 0.11123  0.67651  0.94310  Biso   1.000  C 
  C46      1.0000 0.06589  0.62135  0.95446  Biso   1.000  C 
  H100     1.0000 0.15568  0.65902  0.91886  Biso   1.000  H 
  H101     1.0000 0.09302  0.70859  0.90516  Biso   1.000  H 
  H102     1.0000 0.03092  0.61741  0.91405  Biso   1.000  H 
  C47      1.0000 0.02779  0.62255  0.01974  Biso   1.000  C 
  H103     1.0000 0.09058  0.58064  0.95815  Biso   1.000  H 
  H104     1.0000 0.05762  0.64628  0.05917  Biso   1.000  H 
  H105     1.0000 0.01393  0.57118  0.03047  Biso   1.000  H 
  C48      1.0000 0.96796  0.66042  0.01107  Biso   1.000  C 
  H106     1.0000 0.97422  0.70520  0.98150  Biso   1.000  H 
  H107     1.0000 0.95111  0.67415  0.05863  Biso   1.000  H 
  H108     1.0000 0.92954  0.62988  0.98888  Biso   1.000  H 
  B229     1.0000 0.84640  0.84640  0.00000  Biso   1.000  B 
  B230     1.0000 0.90471  0.82954  0.00000  Biso   1.000  B 
  B231     1.0000 0.82954  0.90471  0.00000  Biso   1.000  B 
  B232     1.0000 0.79500  0.79500  0.00000  Biso   1.000  B 
  B233     1.0000 0.73249  0.81563  0.00000  Biso   1.000  B 
  B234     1.0000 0.72128  0.86954  0.00000  Biso   1.000  B 
  O13      1.0000 0.61957  0.78590  0.01865  Biso   1.000  O 
  B235     1.0000 0.68442  0.76752  0.00000  Biso   1.000  B 
  B236     1.0000 0.70500  0.70501  0.00000  Biso   1.000  B 
  B237     1.0000 0.76751  0.68442  0.00000  Biso   1.000  B 
  B238     1.0000 0.81563  0.73249  0.00000  Biso   1.000  B 
  B239     1.0000 0.86954  0.72128  0.00000  Biso   1.000  B 
  B240     1.0000 0.77872  0.63051  0.00000  Biso   1.000  B 
  B241     1.0000 0.67046  0.59530  0.00000  Biso   1.000  B 
  B242     1.0000 0.65360  0.65361  0.00000  Biso   1.000  B 
  B243     1.0000 0.59529  0.67047  0.00000  Biso   1.000  B 
  C49      1.0000 0.57890  0.79102  0.96667  Biso   1.000  C 
  C50      1.0000 0.50806  0.78197  0.99282  Biso   1.000  C 
  H109     1.0000 0.58853  0.75080  0.93033  Biso   1.000  H 
  H110     1.0000 0.58824  0.83697  0.94126  Biso   1.000  H 
  H111     1.0000 0.46927  0.76972  0.95902  Biso   1.000  H 
  C51      1.0000 0.48045  0.83294  0.03567  Biso   1.000  C 
  H112     1.0000 0.51274  0.74289  0.02489  Biso   1.000  H 
  H113     1.0000 0.51791  0.85821  0.06418  Biso   1.000  H 
  H114     1.0000 0.44291  0.81059  0.06561  Biso   1.000  H 
  C52      1.0000 0.43858  0.88004  0.00106  Biso   1.000  C 
  H115     1.0000 0.42957  0.86736  0.95085  Biso   1.000  H 
  H116     1.0000 0.46780  0.92290  0.00326  Biso   1.000  H 
  H117     1.0000 0.39317  0.89136  0.02560  Biso   1.000  H 
  B244     1.0000 0.84640  0.34640  0.50000  Biso   1.000  B 
  B245     1.0000 0.90471  0.32954  0.50000  Biso   1.000  B 
  B246     1.0000 0.82954  0.40471  0.50000  Biso   1.000  B 
  B247     1.0000 0.79500  0.29500  0.50000  Biso   1.000  B 
  B248     1.0000 0.73249  0.31563  0.50000  Biso   1.000  B 
  B249     1.0000 0.72128  0.36954  0.50000  Biso   1.000  B 
  O14      1.0000 0.62031  0.28661  0.51533  Biso   1.000  O 
  B250     1.0000 0.68442  0.26751  0.50000  Biso   1.000  B 
  B251     1.0000 0.70500  0.20500  0.50000  Biso   1.000  B 
  B252     1.0000 0.76751  0.18442  0.50000  Biso   1.000  B 
  B253     1.0000 0.81563  0.23249  0.50000  Biso   1.000  B 
  B254     1.0000 0.86954  0.22128  0.50000  Biso   1.000  B 
  B255     1.0000 0.77872  0.13051  0.50000  Biso   1.000  B 
  B256     1.0000 0.67046  0.09530  0.50000  Biso   1.000  B 
  B257     1.0000 0.65360  0.15360  0.50000  Biso   1.000  B 
  B258     1.0000 0.59529  0.17046  0.50000  Biso   1.000  B 
  C53      1.0000 0.58019  0.29061  0.46279  Biso   1.000  C 
  C54      1.0000 0.51075  0.27551  0.48844  Biso   1.000  C 
  H118     1.0000 0.59381  0.25616  0.42367  Biso   1.000  H 
  H119     1.0000 0.58179  0.34013  0.44296  Biso   1.000  H 
  H120     1.0000 0.47317  0.25926  0.45718  Biso   1.000  H 
  C55      1.0000 0.47667  0.32617  0.52767  Biso   1.000  C 
  H121     1.0000 0.51703  0.23858  0.52100  Biso   1.000  H 
  H122     1.0000 0.51533  0.34756  0.55884  Biso   1.000  H 
  H123     1.0000 0.43975  0.30370  0.56015  Biso   1.000  H 
  C56      1.0000 0.44481  0.37799  0.49005  Biso   1.000  C 
  H124     1.0000 0.43167  0.36246  0.44032  Biso   1.000  H 
  H125     1.0000 0.48112  0.41561  0.48967  Biso   1.000  H 
  H126     1.0000 0.40310  0.39644  0.51695  Biso   1.000  H 
  B259     1.0000 0.34640  0.84640  0.50000  Biso   1.000  B 
  B260     1.0000 0.40471  0.82954  0.50000  Biso   1.000  B 
  B261     1.0000 0.32954  0.90471  0.50000  Biso   1.000  B 
  B262     1.0000 0.29500  0.79500  0.50000  Biso   1.000  B 
  B263     1.0000 0.23249  0.81563  0.50000  Biso   1.000  B 
  B264     1.0000 0.22128  0.86954  0.50000  Biso   1.000  B 
  O15      1.0000 0.12131  0.78583  0.52107  Biso   1.000  O 
  B265     1.0000 0.18442  0.76752  0.50000  Biso   1.000  B 
  B266     1.0000 0.20500  0.70501  0.50000  Biso   1.000  B 
  B267     1.0000 0.26751  0.68442  0.50000  Biso   1.000  B 
  B268     1.0000 0.31563  0.73249  0.50000  Biso   1.000  B 
  B269     1.0000 0.36954  0.72128  0.50000  Biso   1.000  B 
  B270     1.0000 0.27872  0.63051  0.50000  Biso   1.000  B 
  B271     1.0000 0.17046  0.59530  0.50000  Biso   1.000  B 
  B272     1.0000 0.15360  0.65361  0.50000  Biso   1.000  B 
  B273     1.0000 0.09529  0.67047  0.50000  Biso   1.000  B 
  C57      1.0000 0.07627  0.79318  0.46846  Biso   1.000  C 
  C58      1.0000 0.01026  0.78055  0.49613  Biso   1.000  C 
  H127     1.0000 0.09048  0.76346  0.42461  Biso   1.000  H 
  H128     1.0000 0.07259  0.84279  0.45491  Biso   1.000  H 
  H129     1.0000 0.97112  0.76537  0.46322  Biso   1.000  H 
  C59      1.0000 0.98262  0.82961  0.53704  Biso   1.000  C 
  H130     1.0000 0.01958  0.74372  0.52895  Biso   1.000  H 
  H131     1.0000 0.02053  0.85150  0.57004  Biso   1.000  H 
  H132     1.0000 0.94073  0.80840  0.56327  Biso   1.000  H 
  C60      1.0000 0.95280  0.88183  0.50100  Biso   1.000  C 
  H133     1.0000 0.93322  0.86743  0.45378  Biso   1.000  H 
  H134     1.0000 0.99212  0.91758  0.49875  Biso   1.000  H 
  H135     1.0000 0.91470  0.90395  0.52825  Biso   1.000  H 
  B274     1.0000 0.34640  0.34640  0.00000  Biso   1.000  B 
  B275     1.0000 0.40471  0.32954  0.00000  Biso   1.000  B 
  B276     1.0000 0.32954  0.40471  0.00000  Biso   1.000  B 
  B277     1.0000 0.29500  0.29500  0.00000  Biso   1.000  B 
  B278     1.0000 0.23249  0.31563  0.00000  Biso   1.000  B 
  B279     1.0000 0.22128  0.36954  0.00000  Biso   1.000  B 
  O16      1.0000 0.11879  0.28457  0.02098  Biso   1.000  O 
  B280     1.0000 0.18442  0.26751  0.00000  Biso   1.000  B 
  B281     1.0000 0.20500  0.20500  0.00000  Biso   1.000  B 
  B282     1.0000 0.26751  0.18442  0.00000  Biso   1.000  B 
  B283     1.0000 0.31563  0.23249  0.00000  Biso   1.000  B 
  B284     1.0000 0.36954  0.22128  0.00000  Biso   1.000  B 
  B285     1.0000 0.27872  0.13051  0.00000  Biso   1.000  B 
  B286     1.0000 0.17046  0.09530  0.00000  Biso   1.000  B 
  B287     1.0000 0.15360  0.15360  0.00000  Biso   1.000  B 
  B288     1.0000 0.09529  0.17046  0.00000  Biso   1.000  B 
  C61      1.0000 0.07684  0.29132  0.96661  Biso   1.000  C 
  C62      1.0000 0.00673  0.27837  0.98895  Biso   1.000  C 
  H136     1.0000 0.08850  0.25959  0.92502  Biso   1.000  H 
  H137     1.0000 0.07901  0.34132  0.95079  Biso   1.000  H 
  H138     1.0000 0.96684  0.26307  0.95540  Biso   1.000  H 
  C63      1.0000 0.97644  0.32781  0.03121  Biso   1.000  C 
  H139     1.0000 0.01727  0.23863  0.01854  Biso   1.000  H 
  H140     1.0000 0.00951  0.35393  0.06379  Biso   1.000  H 
  H141     1.0000 0.94166  0.30303  0.05893  Biso   1.000  H 
  C64      1.0000 0.93963  0.37518  0.99530  Biso   1.000  C 
  H142     1.0000 0.93220  0.36120  0.94365  Biso   1.000  H 
  H143     1.0000 0.96339  0.42081  0.99807  Biso   1.000  H 
  H144     1.0000 0.89305  0.38294  0.01728  Biso   1.000  H 
  B289     1.0000 0.00000  0.84640  0.15360  Biso   1.000  B 
  B290     1.0000 0.00000  0.90471  0.17046  Biso   1.000  B 
  B291     1.0000 0.00000  0.82954  0.09529  Biso   1.000  B 
  B292     1.0000 0.00000  0.79500  0.20500  Biso   1.000  B 
  B293     1.0000 0.00000  0.73249  0.18437  Biso   1.000  B 
  B294     1.0000 0.00000  0.72128  0.13046  Biso   1.000  B 
  O17      1.0000 0.02219  0.61936  0.21651  Biso   1.000  O 
  B295     1.0000 0.00000  0.68442  0.23249  Biso   1.000  B 
  B296     1.0000 0.00000  0.70500  0.29500  Biso   1.000  B 
  B297     1.0000 0.00000  0.76751  0.31558  Biso   1.000  B 
  B298     1.0000 0.00000  0.81563  0.26751  Biso   1.000  B 
  B299     1.0000 0.00000  0.86954  0.27872  Biso   1.000  B 
  B300     1.0000 0.00000  0.77872  0.36949  Biso   1.000  B 
  B301     1.0000 0.00000  0.67046  0.40470  Biso   1.000  B 
  B302     1.0000 0.00000  0.65360  0.34640  Biso   1.000  B 
  B303     1.0000 0.00000  0.59529  0.32954  Biso   1.000  B 
  C65      1.0000 0.97034  0.57770  0.19808  Biso   1.000  C 
  C66      1.0000 0.99081  0.50526  0.19262  Biso   1.000  C 
  H145     1.0000 0.95392  0.59205  0.14946  Biso   1.000  H 
  H146     1.0000 0.92905  0.58105  0.23221  Biso   1.000  H 
  H147     1.0000 0.03830  0.50978  0.17149  Biso   1.000  H 
  C67      1.0000 0.94936  0.47003  0.14135  Biso   1.000  C 
  H148     1.0000 0.99728  0.48022  0.23971  Biso   1.000  H 
  H149     1.0000 0.97855  0.45740  0.09992  Biso   1.000  H 
  H150     1.0000 0.91424  0.50393  0.12030  Biso   1.000  H 
  C68      1.0000 0.91290  0.41146  0.16633  Biso   1.000  C 
  H151     1.0000 0.93903  0.37043  0.14598  Biso   1.000  H 
  H152     1.0000 0.86300  0.40445  0.14951  Biso   1.000  H 
  H153     1.0000 0.91554  0.40868  0.21925  Biso   1.000  H 
  B304     1.0000 0.00000  0.34640  0.65360  Biso   1.000  B 
  B305     1.0000 0.00000  0.40471  0.67046  Biso   1.000  B 
  B306     1.0000 0.00000  0.32954  0.59529  Biso   1.000  B 
  B307     1.0000 0.00000  0.29500  0.70500  Biso   1.000  B 
  B308     1.0000 0.00000  0.23249  0.68437  Biso   1.000  B 
  B309     1.0000 0.00000  0.22128  0.63046  Biso   1.000  B 
  O18      1.0000 0.01872  0.11763  0.71346  Biso   1.000  O 
  B310     1.0000 0.00000  0.18442  0.73248  Biso   1.000  B 
  B311     1.0000 0.00000  0.20500  0.79499  Biso   1.000  B 
  B312     1.0000 0.00000  0.26751  0.81558  Biso   1.000  B 
  B313     1.0000 0.00000  0.31563  0.76751  Biso   1.000  B 
  B314     1.0000 0.00000  0.36954  0.77872  Biso   1.000  B 
  B315     1.0000 0.00000  0.27872  0.86949  Biso   1.000  B 
  B316     1.0000 0.00000  0.17046  0.90470  Biso   1.000  B 
  B317     1.0000 0.00000  0.15360  0.84639  Biso   1.000  B 
  B318     1.0000 0.00000  0.09529  0.82953  Biso   1.000  B 
  C69      1.0000 0.97082  0.07815  0.68299  Biso   1.000  C 
  C70      1.0000 0.99072  0.00686  0.68251  Biso   1.000  C 
  H154     1.0000 0.96700  0.09473  0.63237  Biso   1.000  H 
  H155     1.0000 0.92316  0.08438  0.70591  Biso   1.000  H 
  H156     1.0000 0.04093  0.00310  0.66573  Biso   1.000  H 
  C71      1.0000 0.94912  0.96898  0.63309  Biso   1.000  C 
  H157     1.0000 0.98941  0.98606  0.73229  Biso   1.000  H 
  H158     1.0000 0.98570  0.94948  0.59960  Biso   1.000  H 
  H159     1.0000 0.91741  0.00172  0.60718  Biso   1.000  H 
  C72      1.0000 0.91164  0.91106  0.66201  Biso   1.000  C 
  H160     1.0000 0.93550  0.86885  0.64517  Biso   1.000  H 
  H161     1.0000 0.85911  0.90329  0.65165  Biso   1.000  H 
  H162     1.0000 0.91134  0.91116  0.71651  Biso   1.000  H 
  B319     1.0000 0.50000  0.84640  0.65360  Biso   1.000  B 
  B320     1.0000 0.50000  0.90471  0.67046  Biso   1.000  B 
  B321     1.0000 0.50000  0.82954  0.59529  Biso   1.000  B 
  B322     1.0000 0.50000  0.79500  0.70500  Biso   1.000  B 
  B323     1.0000 0.50000  0.73249  0.68437  Biso   1.000  B 
  B324     1.0000 0.50000  0.72128  0.63046  Biso   1.000  B 
  O19      1.0000 0.52543  0.62239  0.71389  Biso   1.000  O 
  B325     1.0000 0.50000  0.68442  0.73248  Biso   1.000  B 
  B326     1.0000 0.50000  0.70500  0.79499  Biso   1.000  B 
  B327     1.0000 0.50000  0.76751  0.81558  Biso   1.000  B 
  B328     1.0000 0.50000  0.81563  0.76751  Biso   1.000  B 
  B329     1.0000 0.50000  0.86954  0.77872  Biso   1.000  B 
  B330     1.0000 0.50000  0.77872  0.86949  Biso   1.000  B 
  B331     1.0000 0.50000  0.67046  0.90470  Biso   1.000  B 
  B332     1.0000 0.50000  0.65360  0.84639  Biso   1.000  B 
  B333     1.0000 0.50000  0.59529  0.82953  Biso   1.000  B 
  C73      1.0000 0.47822  0.57764  0.70159  Biso   1.000  C 
  C74      1.0000 0.48629  0.56910  0.63195  Biso   1.000  C 
  H163     1.0000 0.42823  0.59380  0.71459  Biso   1.000  H 
  H164     1.0000 0.49330  0.53613  0.73082  Biso   1.000  H 
  H165     1.0000 0.46523  0.61212  0.60926  Biso   1.000  H 
  C75      1.0000 0.45281  0.51018  0.60442  Biso   1.000  C 
  H166     1.0000 0.53812  0.56803  0.62056  Biso   1.000  H 
  H167     1.0000 0.47627  0.50197  0.55754  Biso   1.000  H 
  H168     1.0000 0.40079  0.51987  0.59902  Biso   1.000  H 
  C76      1.0000 0.46884  0.45188  0.64533  Biso   1.000  C 
  H169     1.0000 0.51997  0.44322  0.64625  Biso   1.000  H 
  H170     1.0000 0.44630  0.40865  0.62499  Biso   1.000  H 
  H171     1.0000 0.45257  0.45651  0.69525  Biso   1.000  H 
  B334     1.0000 0.50000  0.34640  0.15360  Biso   1.000  B 
  B335     1.0000 0.50000  0.40471  0.17046  Biso   1.000  B 
  B336     1.0000 0.50000  0.32954  0.09529  Biso   1.000  B 
  B337     1.0000 0.50000  0.29500  0.20500  Biso   1.000  B 
  B338     1.0000 0.50000  0.23249  0.18437  Biso   1.000  B 
  B339     1.0000 0.50000  0.22128  0.13046  Biso   1.000  B 
  O20      1.0000 0.52610  0.12204  0.21951  Biso   1.000  O 
  B340     1.0000 0.50000  0.18442  0.23249  Biso   1.000  B 
  B341     1.0000 0.50000  0.20500  0.29500  Biso   1.000  B 
  B342     1.0000 0.50000  0.26751  0.31558  Biso   1.000  B 
  B343     1.0000 0.50000  0.31563  0.26751  Biso   1.000  B 
  B344     1.0000 0.50000  0.36954  0.27872  Biso   1.000  B 
  B345     1.0000 0.50000  0.27872  0.36949  Biso   1.000  B 
  B346     1.0000 0.50000  0.17046  0.40470  Biso   1.000  B 
  B347     1.0000 0.50000  0.15360  0.34640  Biso   1.000  B 
  B348     1.0000 0.50000  0.09529  0.32954  Biso   1.000  B 
  C77      1.0000 0.47752  0.07528  0.21196  Biso   1.000  C 
  C78      1.0000 0.48332  0.05662  0.14156  Biso   1.000  C 
  H172     1.0000 0.42822  0.09083  0.22558  Biso   1.000  H 
  H173     1.0000 0.49224  0.03227  0.23900  Biso   1.000  H 
  H174     1.0000 0.46825  0.09853  0.11429  Biso   1.000  H 
  C79      1.0000 0.44239  0.00270  0.11888  Biso   1.000  C 
  H175     1.0000 0.53347  0.04789  0.13084  Biso   1.000  H 
  H176     1.0000 0.44856  0.00028  0.06732  Biso   1.000  H 
  H177     1.0000 0.39400  0.01968  0.12990  Biso   1.000  H 
  C80      1.0000 0.45669  0.94141  0.14900  Biso   1.000  C 
  H178     1.0000 0.50634  0.92900  0.13496  Biso   1.000  H 
  H179     1.0000 0.42258  0.90260  0.13508  Biso   1.000  H 
  H180     1.0000 0.45490  0.94809  0.20250  Biso   1.000  H 
  B349     1.0000 0.00000  0.84640  0.84640  Biso   1.000  B 
  B350     1.0000 0.00000  0.90471  0.82954  Biso   1.000  B 
  B351     1.0000 0.00000  0.82954  0.90471  Biso   1.000  B 
  B352     1.0000 0.00000  0.79500  0.79500  Biso   1.000  B 
  B353     1.0000 0.00000  0.73249  0.81563  Biso   1.000  B 
  B354     1.0000 0.00000  0.72128  0.86954  Biso   1.000  B 
  O21      1.0000 0.02672  0.62115  0.78460  Biso   1.000  O 
  B355     1.0000 0.00000  0.68442  0.76752  Biso   1.000  B 
  B356     1.0000 0.00000  0.70500  0.70501  Biso   1.000  B 
  B357     1.0000 0.00000  0.76751  0.68442  Biso   1.000  B 
  B358     1.0000 0.00000  0.81563  0.73249  Biso   1.000  B 
  B359     1.0000 0.00000  0.86954  0.72128  Biso   1.000  B 
  B360     1.0000 0.00000  0.77872  0.63051  Biso   1.000  B 
  B361     1.0000 0.00000  0.67046  0.59530  Biso   1.000  B 
  B362     1.0000 0.00000  0.65360  0.65361  Biso   1.000  B 
  B363     1.0000 0.00000  0.59529  0.67047  Biso   1.000  B 
  C81      1.0000 0.97498  0.57975  0.79875  Biso   1.000  C 
  C82      1.0000 0.99893  0.51078  0.78334  Biso   1.000  C 
  H181     1.0000 0.93166  0.58950  0.76686  Biso   1.000  H 
  H182     1.0000 0.95787  0.58497  0.84842  Biso   1.000  H 
  H183     1.0000 0.96205  0.47796  0.76190  Biso   1.000  H 
  C83      1.0000 0.03807  0.47534  0.83310  Biso   1.000  C 
  H184     1.0000 0.03307  0.52067  0.74600  Biso   1.000  H 
  H185     1.0000 0.07110  0.50930  0.85851  Biso   1.000  H 
  H186     1.0000 0.06668  0.43938  0.80387  Biso   1.000  H 
  C84      1.0000 0.00302  0.43518  0.87948  Biso   1.000  C 
  H187     1.0000 0.95174  0.43223  0.86090  Biso   1.000  H 
  H188     1.0000 0.01204  0.46264  0.92384  Biso   1.000  H 
  H189     1.0000 0.02308  0.38712  0.88136  Biso   1.000  H 
  B364     1.0000 0.00000  0.34640  0.34640  Biso   1.000  B 
  B365     1.0000 0.00000  0.40471  0.32954  Biso   1.000  B 
  B366     1.0000 0.00000  0.32954  0.40471  Biso   1.000  B 
  B367     1.0000 0.00000  0.29500  0.29500  Biso   1.000  B 
  B368     1.0000 0.00000  0.23249  0.31563  Biso   1.000  B 
  B369     1.0000 0.00000  0.22128  0.36954  Biso   1.000  B 
  O22      1.0000 0.01875  0.11859  0.28653  Biso   1.000  O 
  B370     1.0000 0.00000  0.18442  0.26751  Biso   1.000  B 
  B371     1.0000 0.00000  0.20500  0.20500  Biso   1.000  B 
  B372     1.0000 0.00000  0.26751  0.18442  Biso   1.000  B 
  B373     1.0000 0.00000  0.31563  0.23249  Biso   1.000  B 
  B374     1.0000 0.00000  0.36954  0.22128  Biso   1.000  B 
  B375     1.0000 0.00000  0.27872  0.13051  Biso   1.000  B 
  B376     1.0000 0.00000  0.17046  0.09530  Biso   1.000  B 
  B377     1.0000 0.00000  0.15360  0.15360  Biso   1.000  B 
  B378     1.0000 0.00000  0.09529  0.17046  Biso   1.000  B 
  C85      1.0000 0.96595  0.07764  0.29414  Biso   1.000  C 
  C86      1.0000 0.99172  0.01275  0.27663  Biso   1.000  C 
  H190     1.0000 0.92350  0.09135  0.26261  Biso   1.000  H 
  H191     1.0000 0.95185  0.07629  0.34652  Biso   1.000  H 
  H192     1.0000 0.95789  0.97578  0.26518  Biso   1.000  H 
  C87      1.0000 0.03034  0.98556  0.33057  Biso   1.000  C 
  H193     1.0000 0.02454  0.01616  0.23799  Biso   1.000  H 
  H194     1.0000 0.06032  0.02262  0.35304  Biso   1.000  H 
  H195     1.0000 0.06084  0.94693  0.31120  Biso   1.000  H 
  C88      1.0000 0.99195  0.94688  0.37845  Biso   1.000  C 
  H196     1.0000 0.94357  0.93539  0.36162  Biso   1.000  H 
  H197     1.0000 0.99286  0.97771  0.41953  Biso   1.000  H 
  H198     1.0000 0.01497  0.90010  0.39121  Biso   1.000  H 
  B379     1.0000 0.50000  0.84640  0.34640  Biso   1.000  B 
  B380     1.0000 0.50000  0.90471  0.32954  Biso   1.000  B 
  B381     1.0000 0.50000  0.82954  0.40471  Biso   1.000  B 
  B382     1.0000 0.50000  0.79500  0.29500  Biso   1.000  B 
  B383     1.0000 0.50000  0.73249  0.31563  Biso   1.000  B 
  B384     1.0000 0.50000  0.72128  0.36954  Biso   1.000  B 
  O23      1.0000 0.51917  0.62053  0.28501  Biso   1.000  O 
  B385     1.0000 0.50000  0.68442  0.26751  Biso   1.000  B 
  B386     1.0000 0.50000  0.70500  0.20500  Biso   1.000  B 
  B387     1.0000 0.50000  0.76751  0.18442  Biso   1.000  B 
  B388     1.0000 0.50000  0.81563  0.23249  Biso   1.000  B 
  B389     1.0000 0.50000  0.86954  0.22128  Biso   1.000  B 
  B390     1.0000 0.50000  0.77872  0.13051  Biso   1.000  B 
  B391     1.0000 0.50000  0.67046  0.09530  Biso   1.000  B 
  B392     1.0000 0.50000  0.65360  0.15360  Biso   1.000  B 
  B393     1.0000 0.50000  0.59529  0.17046  Biso   1.000  B 
  C89      1.0000 0.46557  0.57956  0.29039  Biso   1.000  C 
  C90      1.0000 0.48924  0.50877  0.27332  Biso   1.000  C 
  H199     1.0000 0.42422  0.59038  0.25610  Biso   1.000  H 
  H200     1.0000 0.44785  0.58613  0.33787  Biso   1.000  H 
  H201     1.0000 0.45593  0.47136  0.25681  Biso   1.000  H 
  C91      1.0000 0.52773  0.48068  0.32594  Biso   1.000  C 
  H202     1.0000 0.52171  0.51546  0.23613  Biso   1.000  H 
  H203     1.0000 0.55721  0.52110  0.34690  Biso   1.000  H 
  H204     1.0000 0.56053  0.44024  0.30912  Biso   1.000  H 
  C92      1.0000 0.48938  0.44929  0.37506  Biso   1.000  C 
  H205     1.0000 0.44279  0.43422  0.35564  Biso   1.000  H 
  H206     1.0000 0.49051  0.48140  0.41262  Biso   1.000  H 
  H207     1.0000 0.51404  0.40585  0.39179  Biso   1.000  H 
  B394     1.0000 0.50000  0.34640  0.84640  Biso   1.000  B 
  B395     1.0000 0.50000  0.40471  0.82954  Biso   1.000  B 
  B396     1.0000 0.50000  0.32954  0.90471  Biso   1.000  B 
  B397     1.0000 0.50000  0.29500  0.79500  Biso   1.000  B 
  B398     1.0000 0.50000  0.23249  0.81563  Biso   1.000  B 
  B399     1.0000 0.50000  0.22128  0.86954  Biso   1.000  B 
  O24      1.0000 0.52249  0.12070  0.78545  Biso   1.000  O 
  B400     1.0000 0.50000  0.18442  0.76752  Biso   1.000  B 
  B401     1.0000 0.50000  0.20500  0.70501  Biso   1.000  B 
  B402     1.0000 0.50000  0.26751  0.68442  Biso   1.000  B 
  B403     1.0000 0.50000  0.31563  0.73249  Biso   1.000  B 
  B404     1.0000 0.50000  0.36954  0.72128  Biso   1.000  B 
  B405     1.0000 0.50000  0.27872  0.63051  Biso   1.000  B 
  B406     1.0000 0.50000  0.17046  0.59530  Biso   1.000  B 
  B407     1.0000 0.50000  0.15360  0.65361  Biso   1.000  B 
  B408     1.0000 0.50000  0.09529  0.67047  Biso   1.000  B 
  C93      1.0000 0.46808  0.08193  0.79434  Biso   1.000  C 
  C94      1.0000 0.49243  0.01175  0.78115  Biso   1.000  C 
  H208     1.0000 0.42862  0.09025  0.75863  Biso   1.000  H 
  H209     1.0000 0.44723  0.08959  0.84193  Biso   1.000  H 
  H210     1.0000 0.45887  0.97568  0.76541  Biso   1.000  H 
  C95      1.0000 0.53446  0.98022  0.82866  Biso   1.000  C 
  H211     1.0000 0.52321  0.01656  0.74089  Biso   1.000  H 
  H212     1.0000 0.56400  0.01749  0.85392  Biso   1.000  H 
  H213     1.0000 0.56353  0.93961  0.80481  Biso   1.000  H 
  C96      1.0000 0.49795  0.94249  0.87768  Biso   1.000  C 
  H214     1.0000 0.45075  0.92659  0.86165  Biso   1.000  H 
  H215     1.0000 0.49321  0.97384  0.91769  Biso   1.000  H 
  H216     1.0000 0.52516  0.90035  0.89497  Biso   1.000  H 
