data_image0
_cell_length_a       20.7004
_cell_length_b       20.7004
_cell_length_c       20.7004
_cell_angle_alpha    90
_cell_angle_beta     90
_cell_angle_gamma    90

_symmetry_space_group_name_H-M    "P 1"
_symmetry_int_tables_number       1

loop_
  _symmetry_equiv_pos_as_xyz
  'x, y, z'

loop_
  _atom_site_label
  _atom_site_occupancy
  _atom_site_fract_x
  _atom_site_fract_y
  _atom_site_fract_z
  _atom_site_thermal_displace_type
  _atom_site_B_iso_or_equiv
  _atom_site_type_symbol
  B1       1.0000 0.11989  0.00000  0.00000  Biso   1.000  B 
  B2       1.0000 0.11989  0.50000  0.50000  Biso   1.000  B 
  B3       1.0000 0.61989  0.00000  0.50000  Biso   1.000  B 
  B4       1.0000 0.61989  0.50000  0.00000  Biso   1.000  B 
  B5       1.0000 0.88011  0.00000  0.00000  Biso   1.000  B 
  B6       1.0000 0.88011  0.50000  0.50000  Biso   1.000  B 
  B7       1.0000 0.38011  0.00000  0.50000  Biso   1.000  B 
  B8       1.0000 0.38011  0.50000  0.00000  Biso   1.000  B 
  B9       1.0000 0.00000  0.11989  0.00000  Biso   1.000  B 
  B10      1.0000 0.00000  0.61989  0.50000  Biso   1.000  B 
  B11      1.0000 0.50000  0.11989  0.50000  Biso   1.000  B 
  B12      1.0000 0.50000  0.61989  0.00000  Biso   1.000  B 
  B13      1.0000 0.00000  0.88011  0.00000  Biso   1.000  B 
  B14      1.0000 0.00000  0.38011  0.50000  Biso   1.000  B 
  B15      1.0000 0.50000  0.88011  0.50000  Biso   1.000  B 
  B16      1.0000 0.50000  0.38011  0.00000  Biso   1.000  B 
  B17      1.0000 0.00000  0.00000  0.11989  Biso   1.000  B 
  B18      1.0000 0.00000  0.50000  0.61989  Biso   1.000  B 
  B19      1.0000 0.50000  0.00000  0.61989  Biso   1.000  B 
  B20      1.0000 0.50000  0.50000  0.11989  Biso   1.000  B 
  B21      1.0000 0.00000  0.00000  0.88011  Biso   1.000  B 
  B22      1.0000 0.00000  0.50000  0.38011  Biso   1.000  B 
  B23      1.0000 0.50000  0.00000  0.38011  Biso   1.000  B 
  B24      1.0000 0.50000  0.50000  0.88011  Biso   1.000  B 
  B25      1.0000 0.05610  0.44390  0.44390  Biso   1.000  B 
  B26      1.0000 0.55610  0.94390  0.44390  Biso   1.000  B 
  B27      1.0000 0.55610  0.44390  0.94390  Biso   1.000  B 
  B28      1.0000 0.44390  0.05610  0.44390  Biso   1.000  B 
  B29      1.0000 0.44390  0.55610  0.94390  Biso   1.000  B 
  B30      1.0000 0.94390  0.94390  0.05610  Biso   1.000  B 
  B31      1.0000 0.94390  0.44390  0.55610  Biso   1.000  B 
  B32      1.0000 0.05610  0.05610  0.05610  Biso   1.000  B 
  B33      1.0000 0.55610  0.55610  0.05610  Biso   1.000  B 
  B34      1.0000 0.94390  0.05610  0.05610  Biso   1.000  B 
  B35      1.0000 0.94390  0.55610  0.55610  Biso   1.000  B 
  B36      1.0000 0.44390  0.05610  0.55610  Biso   1.000  B 
  B37      1.0000 0.44390  0.55610  0.05610  Biso   1.000  B 
  B38      1.0000 0.05610  0.94390  0.05610  Biso   1.000  B 
  B39      1.0000 0.05610  0.44390  0.55610  Biso   1.000  B 
  B40      1.0000 0.55610  0.94390  0.55610  Biso   1.000  B 
  B41      1.0000 0.55610  0.44390  0.05610  Biso   1.000  B 
  B42      1.0000 0.94390  0.94390  0.94390  Biso   1.000  B 
  B43      1.0000 0.94390  0.44390  0.44390  Biso   1.000  B 
  B44      1.0000 0.44390  0.94390  0.44390  Biso   1.000  B 
  B45      1.0000 0.44390  0.44390  0.94390  Biso   1.000  B 
  B46      1.0000 0.05610  0.05610  0.94390  Biso   1.000  B 
  B47      1.0000 0.05610  0.55610  0.44390  Biso   1.000  B 
  B48      1.0000 0.55610  0.05610  0.44390  Biso   1.000  B 
  B49      1.0000 0.15360  0.00000  0.84640  Biso   1.000  B 
  B50      1.0000 0.17046  0.00000  0.90471  Biso   1.000  B 
  B51      1.0000 0.09529  0.00000  0.82954  Biso   1.000  B 
  B52      1.0000 0.20500  0.00000  0.79500  Biso   1.000  B 
  B53      1.0000 0.18437  0.00000  0.73249  Biso   1.000  B 
  N1       1.0000 0.12459  0.95888  0.70836  Biso   1.000  N 
  B54      1.0000 0.22128  0.00000  0.63051  Biso   1.000  B 
  B55      1.0000 0.23249  0.00000  0.68442  Biso   1.000  B 
  B56      1.0000 0.29500  0.00000  0.70500  Biso   1.000  B 
  B57      1.0000 0.31558  0.00000  0.76751  Biso   1.000  B 
  B58      1.0000 0.26751  0.00000  0.81563  Biso   1.000  B 
  B59      1.0000 0.27872  0.00000  0.86954  Biso   1.000  B 
  N2       1.0000 0.37607  0.04330  0.77851  Biso   1.000  N 
  B60      1.0000 0.40470  0.00000  0.67046  Biso   1.000  B 
  B61      1.0000 0.34640  0.00000  0.65360  Biso   1.000  B 
  B62      1.0000 0.32954  0.00000  0.59529  Biso   1.000  B 
  H1       1.0000 0.10261  0.93670  0.74550  Biso   1.000  H 
  C1       1.0000 0.07679  0.98891  0.66767  Biso   1.000  C 
  H2       1.0000 0.10291  0.01489  0.63532  Biso   1.000  H 
  C2       1.0000 0.03333  0.02163  0.71140  Biso   1.000  C 
  C3       1.0000 0.03564  0.94931  0.62124  Biso   1.000  C 
  C4       1.0000 0.97590  0.98590  0.61574  Biso   1.000  C 
  H3       1.0000 0.94011  0.95427  0.59612  Biso   1.000  H 
  H4       1.0000 0.96775  0.02237  0.58004  Biso   1.000  H 
  C5       1.0000 0.97154  0.00324  0.68468  Biso   1.000  C 
  H5       1.0000 0.06493  0.06885  0.71493  Biso   1.000  H 
  H6       1.0000 0.02667  0.00670  0.75950  Biso   1.000  H 
  H7       1.0000 0.96634  0.95905  0.71039  Biso   1.000  H 
  H8       1.0000 0.93855  0.04354  0.69531  Biso   1.000  H 
  H9       1.0000 0.02045  0.90244  0.63273  Biso   1.000  H 
  H10      1.0000 0.05799  0.94254  0.58122  Biso   1.000  H 
  C6       1.0000 0.43484  0.01973  0.80988  Biso   1.000  C 
  H11      1.0000 0.38154  0.08416  0.74872  Biso   1.000  H 
  C7       1.0000 0.49759  0.01338  0.77644  Biso   1.000  C 
  H12      1.0000 0.49316  0.98039  0.73726  Biso   1.000  H 
  C8       1.0000 0.53708  0.98258  0.82773  Biso   1.000  C 
  H13      1.0000 0.52740  0.04747  0.75831  Biso   1.000  H 
  C9       1.0000 0.49121  0.94544  0.86499  Biso   1.000  C 
  H14      1.0000 0.55800  0.02025  0.86122  Biso   1.000  H 
  H15      1.0000 0.57090  0.95560  0.79765  Biso   1.000  H 
  C10      1.0000 0.42794  0.95136  0.82827  Biso   1.000  C 
  H16      1.0000 0.48608  0.96968  0.91246  Biso   1.000  H 
  H17      1.0000 0.51090  0.90135  0.87102  Biso   1.000  H 
  H18      1.0000 0.38707  0.93385  0.85398  Biso   1.000  H 
  H19      1.0000 0.42456  0.92410  0.78344  Biso   1.000  H 
  H20      1.0000 0.44888  0.05103  0.84967  Biso   1.000  H 
  B63      1.0000 0.15360  0.50000  0.34640  Biso   1.000  B 
  B64      1.0000 0.17046  0.50000  0.40471  Biso   1.000  B 
  B65      1.0000 0.09529  0.50000  0.32954  Biso   1.000  B 
  B66      1.0000 0.20500  0.50000  0.29500  Biso   1.000  B 
  B67      1.0000 0.18437  0.50000  0.23249  Biso   1.000  B 
  N3       1.0000 0.12709  0.45794  0.21498  Biso   1.000  N 
  B68      1.0000 0.22128  0.50000  0.13051  Biso   1.000  B 
  B69      1.0000 0.23249  0.50000  0.18442  Biso   1.000  B 
  B70      1.0000 0.29500  0.50000  0.20500  Biso   1.000  B 
  B71      1.0000 0.31558  0.50000  0.26751  Biso   1.000  B 
  B72      1.0000 0.26751  0.50000  0.31563  Biso   1.000  B 
  B73      1.0000 0.27872  0.50000  0.36954  Biso   1.000  B 
  N4       1.0000 0.37783  0.53729  0.27935  Biso   1.000  N 
  B74      1.0000 0.40470  0.50000  0.17046  Biso   1.000  B 
  B75      1.0000 0.34640  0.50000  0.15360  Biso   1.000  B 
  B76      1.0000 0.32954  0.50000  0.09529  Biso   1.000  B 
  H21      1.0000 0.09427  0.43646  0.24736  Biso   1.000  H 
  C11      1.0000 0.09330  0.49022  0.16691  Biso   1.000  C 
  H22      1.0000 0.12738  0.50234  0.13529  Biso   1.000  H 
  C12      1.0000 0.05533  0.54025  0.19985  Biso   1.000  C 
  C13      1.0000 0.04710  0.45554  0.11895  Biso   1.000  C 
  C14      1.0000 0.98431  0.48545  0.12742  Biso   1.000  C 
  H23      1.0000 0.95276  0.44540  0.11467  Biso   1.000  H 
  H24      1.0000 0.96984  0.52365  0.08943  Biso   1.000  H 
  C15      1.0000 0.98903  0.51194  0.19422  Biso   1.000  C 
  H25      1.0000 0.06096  0.57714  0.17012  Biso   1.000  H 
  H26      1.0000 0.07581  0.55676  0.24399  Biso   1.000  H 
  H27      1.0000 0.99407  0.47032  0.22956  Biso   1.000  H 
  H28      1.0000 0.95008  0.54287  0.20224  Biso   1.000  H 
  H29      1.0000 0.04286  0.40694  0.12392  Biso   1.000  H 
  H30      1.0000 0.05194  0.45996  0.06635  Biso   1.000  H 
  C16      1.0000 0.43326  0.51351  0.31091  Biso   1.000  C 
  H31      1.0000 0.38043  0.58340  0.25831  Biso   1.000  H 
  C17      1.0000 0.49995  0.51229  0.27882  Biso   1.000  C 
  H32      1.0000 0.49688  0.48270  0.23775  Biso   1.000  H 
  C18      1.0000 0.53614  0.48156  0.32981  Biso   1.000  C 
  H33      1.0000 0.52861  0.54999  0.26371  Biso   1.000  H 
  C19      1.0000 0.48747  0.44244  0.36591  Biso   1.000  C 
  H34      1.0000 0.55670  0.51900  0.36289  Biso   1.000  H 
  H35      1.0000 0.57328  0.45709  0.30254  Biso   1.000  H 
  C20      1.0000 0.42570  0.44495  0.32630  Biso   1.000  C 
  H36      1.0000 0.48191  0.46509  0.41276  Biso   1.000  H 
  H37      1.0000 0.51004  0.39918  0.37018  Biso   1.000  H 
  H38      1.0000 0.38262  0.42822  0.34783  Biso   1.000  H 
  H39      1.0000 0.42456  0.42229  0.27792  Biso   1.000  H 
  H40      1.0000 0.44232  0.54555  0.35353  Biso   1.000  H 
  B77      1.0000 0.65360  0.00000  0.34640  Biso   1.000  B 
  B78      1.0000 0.67046  0.00000  0.40471  Biso   1.000  B 
  B79      1.0000 0.59529  0.00000  0.32954  Biso   1.000  B 
  B80      1.0000 0.70500  0.00000  0.29500  Biso   1.000  B 
  B81      1.0000 0.68437  0.00000  0.23249  Biso   1.000  B 
  N5       1.0000 0.62855  0.95233  0.21670  Biso   1.000  N 
  B82      1.0000 0.72128  0.00000  0.13051  Biso   1.000  B 
  B83      1.0000 0.73248  0.00000  0.18442  Biso   1.000  B 
  B84      1.0000 0.79499  0.00000  0.20500  Biso   1.000  B 
  B85      1.0000 0.81558  0.00000  0.26751  Biso   1.000  B 
  B86      1.0000 0.76751  0.00000  0.31563  Biso   1.000  B 
  B87      1.0000 0.77872  0.00000  0.36954  Biso   1.000  B 
  N6       1.0000 0.87344  0.04604  0.27958  Biso   1.000  N 
  B88      1.0000 0.90470  0.00000  0.17046  Biso   1.000  B 
  B89      1.0000 0.84639  0.00000  0.15360  Biso   1.000  B 
  B90      1.0000 0.82953  0.00000  0.09529  Biso   1.000  B 
  H41      1.0000 0.59967  0.92849  0.25311  Biso   1.000  H 
  C21      1.0000 0.59016  0.98129  0.16645  Biso   1.000  C 
  H42      1.0000 0.62252  0.99758  0.13099  Biso   1.000  H 
  C22      1.0000 0.55127  0.03039  0.19627  Biso   1.000  C 
  C23      1.0000 0.54682  0.94575  0.11756  Biso   1.000  C 
  C24      1.0000 0.48772  0.98518  0.11225  Biso   1.000  C 
  H43      1.0000 0.44467  0.95433  0.10158  Biso   1.000  H 
  H44      1.0000 0.48608  0.01545  0.07242  Biso   1.000  H 
  C25      1.0000 0.48604  0.01494  0.18006  Biso   1.000  C 
  H45      1.0000 0.57240  0.07212  0.18098  Biso   1.000  H 
  H46      1.0000 0.54869  0.03065  0.24926  Biso   1.000  H 
  H47      1.0000 0.47563  0.97757  0.21309  Biso   1.000  H 
  H48      1.0000 0.44717  0.05206  0.18614  Biso   1.000  H 
  H49      1.0000 0.52527  0.90644  0.13445  Biso   1.000  H 
  H50      1.0000 0.56706  0.93504  0.07107  Biso   1.000  H 
  C26      1.0000 0.93291  0.02033  0.30382  Biso   1.000  C 
  H51      1.0000 0.87642  0.08353  0.24528  Biso   1.000  H 
  C27      1.0000 0.99259  0.01678  0.26464  Biso   1.000  C 
  H52      1.0000 0.98780  0.99025  0.22234  Biso   1.000  H 
  C28      1.0000 0.03231  0.97982  0.30820  Biso   1.000  C 
  H53      1.0000 0.02787  0.04947  0.25459  Biso   1.000  H 
  C29      1.0000 0.99090  0.94970  0.35644  Biso   1.000  C 
  H54      1.0000 0.06198  0.00887  0.33754  Biso   1.000  H 
  H55      1.0000 0.05998  0.94811  0.27854  Biso   1.000  H 
  C30      1.0000 0.92611  0.95237  0.32208  Biso   1.000  C 
  H56      1.0000 0.99326  0.97933  0.40100  Biso   1.000  H 
  H57      1.0000 0.00883  0.90569  0.36388  Biso   1.000  H 
  H58      1.0000 0.88582  0.93706  0.34633  Biso   1.000  H 
  H59      1.0000 0.92175  0.92452  0.27574  Biso   1.000  H 
  H60      1.0000 0.94974  0.05519  0.34198  Biso   1.000  H 
  B91      1.0000 0.65360  0.50000  0.84640  Biso   1.000  B 
  B92      1.0000 0.67046  0.50000  0.90471  Biso   1.000  B 
  B93      1.0000 0.59529  0.50000  0.82954  Biso   1.000  B 
  B94      1.0000 0.70500  0.50000  0.79500  Biso   1.000  B 
  B95      1.0000 0.68437  0.50000  0.73249  Biso   1.000  B 
  N7       1.0000 0.62717  0.45796  0.71534  Biso   1.000  N 
  B96      1.0000 0.72128  0.50000  0.63051  Biso   1.000  B 
  B97      1.0000 0.73248  0.50000  0.68442  Biso   1.000  B 
  B98      1.0000 0.79499  0.50000  0.70500  Biso   1.000  B 
  B99      1.0000 0.81558  0.50000  0.76751  Biso   1.000  B 
  B100     1.0000 0.76751  0.50000  0.81563  Biso   1.000  B 
  B101     1.0000 0.77872  0.50000  0.86954  Biso   1.000  B 
  N8       1.0000 0.87568  0.54044  0.77983  Biso   1.000  N 
  B102     1.0000 0.90470  0.50000  0.67046  Biso   1.000  B 
  B103     1.0000 0.84639  0.50000  0.65360  Biso   1.000  B 
  B104     1.0000 0.82953  0.50000  0.59529  Biso   1.000  B 
  H61      1.0000 0.60507  0.42985  0.74980  Biso   1.000  H 
  C31      1.0000 0.58911  0.48370  0.66067  Biso   1.000  C 
  H62      1.0000 0.60824  0.46556  0.61356  Biso   1.000  H 
  C32      1.0000 0.59664  0.55035  0.66724  Biso   1.000  C 
  C33      1.0000 0.51522  0.48068  0.66749  Biso   1.000  C 
  C34      1.0000 0.50993  0.52266  0.72836  Biso   1.000  C 
  H63      1.0000 0.50585  0.48915  0.76632  Biso   1.000  H 
  H64      1.0000 0.46094  0.54602  0.72634  Biso   1.000  H 
  C35      1.0000 0.57618  0.56680  0.72915  Biso   1.000  C 
  H65      1.0000 0.56547  0.56920  0.63373  Biso   1.000  H 
  H66      1.0000 0.64223  0.57402  0.66536  Biso   1.000  H 
  H67      1.0000 0.60722  0.57066  0.76768  Biso   1.000  H 
  H68      1.0000 0.58520  0.61717  0.72464  Biso   1.000  H 
  H69      1.0000 0.49361  0.43560  0.65939  Biso   1.000  H 
  H70      1.0000 0.49163  0.50936  0.62859  Biso   1.000  H 
  C36      1.0000 0.92992  0.51824  0.81335  Biso   1.000  C 
  H71      1.0000 0.88491  0.58000  0.75006  Biso   1.000  H 
  C37      1.0000 0.99350  0.51225  0.77715  Biso   1.000  C 
  H72      1.0000 0.98835  0.47804  0.73832  Biso   1.000  H 
  C38      1.0000 0.03292  0.48637  0.83164  Biso   1.000  C 
  H73      1.0000 0.02187  0.54849  0.75918  Biso   1.000  H 
  C39      1.0000 0.98701  0.44596  0.86926  Biso   1.000  C 
  H74      1.0000 0.05168  0.52662  0.86212  Biso   1.000  H 
  H75      1.0000 0.06987  0.46070  0.80787  Biso   1.000  H 
  C40      1.0000 0.92363  0.44868  0.83059  Biso   1.000  C 
  H76      1.0000 0.98533  0.46885  0.91733  Biso   1.000  H 
  H77      1.0000 0.00934  0.40154  0.87180  Biso   1.000  H 
  H78      1.0000 0.88055  0.43607  0.85546  Biso   1.000  H 
  H79      1.0000 0.91947  0.41928  0.78587  Biso   1.000  H 
  H80      1.0000 0.94175  0.55158  0.85363  Biso   1.000  H 
  B105     1.0000 0.84640  0.00000  0.84640  Biso   1.000  B 
  B106     1.0000 0.82954  0.00000  0.90471  Biso   1.000  B 
  B107     1.0000 0.90471  0.00000  0.82954  Biso   1.000  B 
  B108     1.0000 0.79500  0.00000  0.79500  Biso   1.000  B 
  B109     1.0000 0.81563  0.00000  0.73249  Biso   1.000  B 
  N9       1.0000 0.86795  0.95283  0.71463  Biso   1.000  N 
  B110     1.0000 0.77872  0.00000  0.63051  Biso   1.000  B 
  B111     1.0000 0.76752  0.00000  0.68442  Biso   1.000  B 
  B112     1.0000 0.70501  0.00000  0.70500  Biso   1.000  B 
  B113     1.0000 0.68442  0.00000  0.76751  Biso   1.000  B 
  B114     1.0000 0.73249  0.00000  0.81563  Biso   1.000  B 
  B115     1.0000 0.72128  0.00000  0.86954  Biso   1.000  B 
  N10      1.0000 0.63263  0.05190  0.78170  Biso   1.000  N 
  B116     1.0000 0.59530  0.00000  0.67046  Biso   1.000  B 
  B117     1.0000 0.65361  0.00000  0.65360  Biso   1.000  B 
  B118     1.0000 0.67047  0.00000  0.59529  Biso   1.000  B 
  H81      1.0000 0.86960  0.96849  0.66635  Biso   1.000  H 
  C41      1.0000 0.84274  0.88935  0.69494  Biso   1.000  C 
  H82      1.0000 0.79042  0.88714  0.68141  Biso   1.000  H 
  C42      1.0000 0.85611  0.84440  0.74259  Biso   1.000  C 
  C43      1.0000 0.88045  0.85948  0.64292  Biso   1.000  C 
  C44      1.0000 0.86067  0.79326  0.63868  Biso   1.000  C 
  H83      1.0000 0.89198  0.75840  0.61299  Biso   1.000  H 
  H84      1.0000 0.81334  0.78748  0.61692  Biso   1.000  H 
  C45      1.0000 0.85298  0.77785  0.70720  Biso   1.000  C 
  H85      1.0000 0.82452  0.84897  0.77736  Biso   1.000  H 
  H86      1.0000 0.90025  0.85742  0.76447  Biso   1.000  H 
  H87      1.0000 0.88883  0.74495  0.72216  Biso   1.000  H 
  H88      1.0000 0.80377  0.75517  0.70882  Biso   1.000  H 
  H89      1.0000 0.93041  0.86615  0.65376  Biso   1.000  H 
  H90      1.0000 0.87204  0.87545  0.59793  Biso   1.000  H 
  C46      1.0000 0.65516  0.09949  0.82869  Biso   1.000  C 
  H91      1.0000 0.62461  0.08038  0.73963  Biso   1.000  H 
  C47      1.0000 0.61120  0.15102  0.83287  Biso   1.000  C 
  H92      1.0000 0.60221  0.16481  0.78267  Biso   1.000  H 
  C48      1.0000 0.64228  0.20831  0.85947  Biso   1.000  C 
  H93      1.0000 0.56879  0.13398  0.85652  Biso   1.000  H 
  C49      1.0000 0.71228  0.20381  0.84110  Biso   1.000  C 
  H94      1.0000 0.61929  0.25616  0.85160  Biso   1.000  H 
  H95      1.0000 0.63397  0.19655  0.90666  Biso   1.000  H 
  C50      1.0000 0.71273  0.13936  0.80794  Biso   1.000  C 
  H96      1.0000 0.74440  0.20134  0.88231  Biso   1.000  H 
  H97      1.0000 0.72396  0.24875  0.81660  Biso   1.000  H 
  H98      1.0000 0.75769  0.11985  0.82231  Biso   1.000  H 
  H99      1.0000 0.71302  0.14684  0.75496  Biso   1.000  H 
  H100     1.0000 0.65927  0.07685  0.87483  Biso   1.000  H 
  B119     1.0000 0.84640  0.50000  0.34640  Biso   1.000  B 
  B120     1.0000 0.82954  0.50000  0.40471  Biso   1.000  B 
  B121     1.0000 0.90471  0.50000  0.32954  Biso   1.000  B 
  B122     1.0000 0.79500  0.50000  0.29500  Biso   1.000  B 
  B123     1.0000 0.81563  0.50000  0.23249  Biso   1.000  B 
  N11      1.0000 0.87028  0.45331  0.21299  Biso   1.000  N 
  B124     1.0000 0.77872  0.50000  0.13051  Biso   1.000  B 
  B125     1.0000 0.76752  0.50000  0.18442  Biso   1.000  B 
  B126     1.0000 0.70501  0.50000  0.20500  Biso   1.000  B 
  B127     1.0000 0.68442  0.50000  0.26751  Biso   1.000  B 
  B128     1.0000 0.73249  0.50000  0.31563  Biso   1.000  B 
  B129     1.0000 0.72128  0.50000  0.36954  Biso   1.000  B 
  N12      1.0000 0.63340  0.55235  0.28084  Biso   1.000  N 
  B130     1.0000 0.59530  0.50000  0.17046  Biso   1.000  B 
  B131     1.0000 0.65361  0.50000  0.15360  Biso   1.000  B 
  B132     1.0000 0.67047  0.50000  0.09529  Biso   1.000  B 
  H101     1.0000 0.87956  0.47961  0.17626  Biso   1.000  H 
  C51      1.0000 0.84552  0.38977  0.19202  Biso   1.000  C 
  H102     1.0000 0.79346  0.39217  0.17739  Biso   1.000  H 
  C52      1.0000 0.85180  0.34646  0.24302  Biso   1.000  C 
  C53      1.0000 0.88367  0.35360  0.14224  Biso   1.000  C 
  C54      1.0000 0.86015  0.28423  0.14403  Biso   1.000  C 
  H103     1.0000 0.88983  0.24021  0.13385  Biso   1.000  H 
  H104     1.0000 0.81556  0.27909  0.11426  Biso   1.000  H 
  C55      1.0000 0.84241  0.27842  0.21209  Biso   1.000  C 
  H105     1.0000 0.81813  0.35549  0.27872  Biso   1.000  H 
  H106     1.0000 0.89962  0.35836  0.26590  Biso   1.000  H 
  H107     1.0000 0.87440  0.24123  0.23265  Biso   1.000  H 
  H108     1.0000 0.79203  0.26068  0.21507  Biso   1.000  H 
  H109     1.0000 0.93470  0.35534  0.14753  Biso   1.000  H 
  H110     1.0000 0.87652  0.36979  0.09755  Biso   1.000  H 
  C56      1.0000 0.65749  0.60119  0.32650  Biso   1.000  C 
  H111     1.0000 0.62426  0.57663  0.23776  Biso   1.000  H 
  C57      1.0000 0.60953  0.65119  0.32999  Biso   1.000  C 
  H112     1.0000 0.60117  0.66271  0.28039  Biso   1.000  H 
  C58      1.0000 0.63887  0.70881  0.35885  Biso   1.000  C 
  H113     1.0000 0.56763  0.63145  0.35629  Biso   1.000  H 
  C59      1.0000 0.70777  0.70611  0.34192  Biso   1.000  C 
  H114     1.0000 0.61779  0.75610  0.34955  Biso   1.000  H 
  H115     1.0000 0.63337  0.69719  0.40664  Biso   1.000  H 
  C60      1.0000 0.71769  0.64048  0.31353  Biso   1.000  C 
  H116     1.0000 0.73698  0.71866  0.38136  Biso   1.000  H 
  H117     1.0000 0.71595  0.73945  0.30426  Biso   1.000  H 
  H118     1.0000 0.76113  0.62027  0.33690  Biso   1.000  H 
  H119     1.0000 0.72028  0.64321  0.25720  Biso   1.000  H 
  H120     1.0000 0.65762  0.58127  0.37054  Biso   1.000  H 
  B133     1.0000 0.34640  0.00000  0.34640  Biso   1.000  B 
  B134     1.0000 0.32954  0.00000  0.40471  Biso   1.000  B 
  B135     1.0000 0.40471  0.00000  0.32954  Biso   1.000  B 
  B136     1.0000 0.29500  0.00000  0.29500  Biso   1.000  B 
  B137     1.0000 0.31563  0.00000  0.23249  Biso   1.000  B 
  N13      1.0000 0.37221  0.95366  0.21329  Biso   1.000  N 
  B138     1.0000 0.27872  0.00000  0.13051  Biso   1.000  B 
  B139     1.0000 0.26751  0.00000  0.18442  Biso   1.000  B 
  B140     1.0000 0.20500  0.00000  0.20500  Biso   1.000  B 
  B141     1.0000 0.18442  0.00000  0.26751  Biso   1.000  B 
  B142     1.0000 0.23249  0.00000  0.31563  Biso   1.000  B 
  B143     1.0000 0.22128  0.00000  0.36954  Biso   1.000  B 
  N14      1.0000 0.13665  0.05849  0.27736  Biso   1.000  N 
  B144     1.0000 0.09530  0.00000  0.17046  Biso   1.000  B 
  B145     1.0000 0.15360  0.00000  0.15360  Biso   1.000  B 
  B146     1.0000 0.17046  0.00000  0.09529  Biso   1.000  B 
  H121     1.0000 0.37994  0.97395  0.16709  Biso   1.000  H 
  C61      1.0000 0.34493  0.89061  0.18999  Biso   1.000  C 
  H122     1.0000 0.29532  0.89081  0.17644  Biso   1.000  H 
  C62      1.0000 0.35066  0.84502  0.24228  Biso   1.000  C 
  C63      1.0000 0.37986  0.84868  0.13955  Biso   1.000  C 
  C64      1.0000 0.34656  0.78262  0.14320  Biso   1.000  C 
  H123     1.0000 0.37126  0.74198  0.12278  Biso   1.000  H 
  H124     1.0000 0.29712  0.78432  0.12645  Biso   1.000  H 
  C65      1.0000 0.34022  0.77607  0.21194  Biso   1.000  C 
  H125     1.0000 0.32386  0.85645  0.28114  Biso   1.000  H 
  H126     1.0000 0.39740  0.85256  0.26056  Biso   1.000  H 
  H127     1.0000 0.38162  0.74682  0.22673  Biso   1.000  H 
  H128     1.0000 0.29772  0.74542  0.21927  Biso   1.000  H 
  H129     1.0000 0.43086  0.85500  0.14360  Biso   1.000  H 
  H130     1.0000 0.37016  0.86607  0.09441  Biso   1.000  H 
  C66      1.0000 0.16092  0.11344  0.31848  Biso   1.000  C 
  H131     1.0000 0.12548  0.08076  0.23437  Biso   1.000  H 
  C67      1.0000 0.11113  0.15976  0.33188  Biso   1.000  C 
  H132     1.0000 0.10202  0.17256  0.28144  Biso   1.000  H 
  C68      1.0000 0.14129  0.21513  0.36198  Biso   1.000  C 
  H133     1.0000 0.07131  0.13674  0.35617  Biso   1.000  H 
  C69      1.0000 0.21052  0.21353  0.33685  Biso   1.000  C 
  H134     1.0000 0.11933  0.26582  0.36132  Biso   1.000  H 
  H135     1.0000 0.13784  0.19740  0.40619  Biso   1.000  H 
  C70      1.0000 0.21282  0.15550  0.29129  Biso   1.000  C 
  H136     1.0000 0.24517  0.20190  0.37258  Biso   1.000  H 
  H137     1.0000 0.22309  0.25957  0.31453  Biso   1.000  H 
  H138     1.0000 0.26029  0.13155  0.29841  Biso   1.000  H 
  H139     1.0000 0.19969  0.16353  0.24360  Biso   1.000  H 
  H140     1.0000 0.18037  0.09553  0.35903  Biso   1.000  H 
  B147     1.0000 0.34640  0.50000  0.84640  Biso   1.000  B 
  B148     1.0000 0.32954  0.50000  0.90471  Biso   1.000  B 
  B149     1.0000 0.40471  0.50000  0.82954  Biso   1.000  B 
  B150     1.0000 0.29500  0.50000  0.79500  Biso   1.000  B 
  B151     1.0000 0.31563  0.50000  0.73249  Biso   1.000  B 
  N15      1.0000 0.37494  0.45831  0.71498  Biso   1.000  N 
  B152     1.0000 0.27872  0.50000  0.63051  Biso   1.000  B 
  B153     1.0000 0.26751  0.50000  0.68442  Biso   1.000  B 
  B154     1.0000 0.20500  0.50000  0.70500  Biso   1.000  B 
  B155     1.0000 0.18442  0.50000  0.76751  Biso   1.000  B 
  B156     1.0000 0.23249  0.50000  0.81563  Biso   1.000  B 
  B157     1.0000 0.22128  0.50000  0.86954  Biso   1.000  B 
  N16      1.0000 0.13166  0.55111  0.78298  Biso   1.000  N 
  B158     1.0000 0.09530  0.50000  0.67046  Biso   1.000  B 
  B159     1.0000 0.15360  0.50000  0.65360  Biso   1.000  B 
  B160     1.0000 0.17046  0.50000  0.59529  Biso   1.000  B 
  H141     1.0000 0.39262  0.47932  0.67414  Biso   1.000  H 
  C71      1.0000 0.34750  0.39410  0.69559  Biso   1.000  C 
  H142     1.0000 0.29670  0.39246  0.68080  Biso   1.000  H 
  C72      1.0000 0.35255  0.34751  0.74428  Biso   1.000  C 
  C73      1.0000 0.38042  0.35719  0.64237  Biso   1.000  C 
  C74      1.0000 0.35081  0.28804  0.64274  Biso   1.000  C 
  H143     1.0000 0.37871  0.24563  0.62354  Biso   1.000  H 
  H144     1.0000 0.30273  0.28718  0.61906  Biso   1.000  H 
  C75      1.0000 0.33926  0.27947  0.71099  Biso   1.000  C 
  H145     1.0000 0.32263  0.35566  0.78262  Biso   1.000  H 
  H146     1.0000 0.39861  0.35265  0.76696  Biso   1.000  H 
  H147     1.0000 0.37406  0.24393  0.72955  Biso   1.000  H 
  H148     1.0000 0.28932  0.26146  0.71647  Biso   1.000  H 
  H149     1.0000 0.43027  0.35830  0.64849  Biso   1.000  H 
  H150     1.0000 0.37220  0.37483  0.59967  Biso   1.000  H 
  C76      1.0000 0.15617  0.60342  0.82647  Biso   1.000  C 
  H151     1.0000 0.12407  0.57736  0.74007  Biso   1.000  H 
  C77      1.0000 0.11301  0.65563  0.82422  Biso   1.000  C 
  H152     1.0000 0.10887  0.66865  0.77042  Biso   1.000  H 
  C78      1.0000 0.14362  0.71028  0.85637  Biso   1.000  C 
  H153     1.0000 0.06956  0.64001  0.85191  Biso   1.000  H 
  C79      1.0000 0.21252  0.70333  0.83750  Biso   1.000  C 
  H154     1.0000 0.11923  0.75654  0.84709  Biso   1.000  H 
  H155     1.0000 0.13656  0.69941  0.90522  Biso   1.000  H 
  C80      1.0000 0.22008  0.63802  0.80800  Biso   1.000  C 
  H156     1.0000 0.24522  0.70355  0.88175  Biso   1.000  H 
  H157     1.0000 0.22659  0.74536  0.80815  Biso   1.000  H 
  H158     1.0000 0.26407  0.61581  0.83034  Biso   1.000  H 
  H159     1.0000 0.22291  0.64132  0.75483  Biso   1.000  H 
  H160     1.0000 0.15745  0.58186  0.87365  Biso   1.000  H 
  B161     1.0000 0.84640  0.15360  0.00000  Biso   1.000  B 
  B162     1.0000 0.90471  0.17046  0.00000  Biso   1.000  B 
  B163     1.0000 0.82954  0.09529  0.00000  Biso   1.000  B 
  B164     1.0000 0.79500  0.20500  0.00000  Biso   1.000  B 
  B165     1.0000 0.73249  0.18437  0.00000  Biso   1.000  B 
  N17      1.0000 0.71578  0.12236  0.96697  Biso   1.000  N 
  B166     1.0000 0.63051  0.22128  0.00000  Biso   1.000  B 
  B167     1.0000 0.68442  0.23249  0.00000  Biso   1.000  B 
  B168     1.0000 0.70500  0.29500  0.00000  Biso   1.000  B 
  B169     1.0000 0.76751  0.31558  0.00000  Biso   1.000  B 
  B170     1.0000 0.81563  0.26751  0.00000  Biso   1.000  B 
  B171     1.0000 0.86954  0.27872  0.00000  Biso   1.000  B 
  N18      1.0000 0.77856  0.37630  0.04435  Biso   1.000  N 
  B172     1.0000 0.67046  0.40470  0.00000  Biso   1.000  B 
  B173     1.0000 0.65360  0.34640  0.00000  Biso   1.000  B 
  B174     1.0000 0.59529  0.32954  0.00000  Biso   1.000  B 
  H161     1.0000 0.74167  0.10374  0.92876  Biso   1.000  H 
  C81      1.0000 0.66118  0.09163  0.99826  Biso   1.000  C 
  H162     1.0000 0.61698  0.09883  0.97232  Biso   1.000  H 
  C82      1.0000 0.66730  0.10957  0.07022  Biso   1.000  C 
  C83      1.0000 0.67135  0.02250  0.99938  Biso   1.000  C 
  C84      1.0000 0.73233  0.01974  0.03253  Biso   1.000  C 
  H163     1.0000 0.76471  0.01832  0.99189  Biso   1.000  H 
  H164     1.0000 0.73530  0.96841  0.04732  Biso   1.000  H 
  C85      1.0000 0.73262  0.08749  0.08269  Biso   1.000  C 
  H165     1.0000 0.63279  0.08353  0.09725  Biso   1.000  H 
  H166     1.0000 0.66391  0.16129  0.08734  Biso   1.000  H 
  H167     1.0000 0.77584  0.11172  0.08115  Biso   1.000  H 
  H168     1.0000 0.72578  0.09991  0.13571  Biso   1.000  H 
  H169     1.0000 0.67081  0.99933  0.95297  Biso   1.000  H 
  H170     1.0000 0.63147  0.00009  0.02595  Biso   1.000  H 
  C86      1.0000 0.80321  0.43497  0.02071  Biso   1.000  C 
  H171     1.0000 0.74582  0.38178  0.08275  Biso   1.000  H 
  C87      1.0000 0.76969  0.50113  0.01685  Biso   1.000  C 
  H172     1.0000 0.73043  0.49752  0.98729  Biso   1.000  H 
  C88      1.0000 0.82352  0.53714  0.98980  Biso   1.000  C 
  H173     1.0000 0.75665  0.53109  0.05220  Biso   1.000  H 
  C89      1.0000 0.86324  0.48802  0.95703  Biso   1.000  C 
  H174     1.0000 0.85274  0.55580  0.03097  Biso   1.000  H 
  H175     1.0000 0.80208  0.57503  0.96098  Biso   1.000  H 
  C90      1.0000 0.82148  0.42845  0.95260  Biso   1.000  C 
  H176     1.0000 0.90830  0.48324  0.98756  Biso   1.000  H 
  H177     1.0000 0.87593  0.51171  0.91547  Biso   1.000  H 
  H178     1.0000 0.84694  0.38635  0.93542  Biso   1.000  H 
  H179     1.0000 0.77595  0.42599  0.92606  Biso   1.000  H 
  H180     1.0000 0.84287  0.44612  0.05616  Biso   1.000  H 
  B175     1.0000 0.84640  0.65360  0.50000  Biso   1.000  B 
  B176     1.0000 0.90471  0.67046  0.50000  Biso   1.000  B 
  B177     1.0000 0.82954  0.59529  0.50000  Biso   1.000  B 
  B178     1.0000 0.79500  0.70500  0.50000  Biso   1.000  B 
  B179     1.0000 0.73249  0.68437  0.50000  Biso   1.000  B 
  N19      1.0000 0.71497  0.62680  0.45799  Biso   1.000  N 
  B180     1.0000 0.63051  0.72128  0.50000  Biso   1.000  B 
  B181     1.0000 0.68442  0.73248  0.50000  Biso   1.000  B 
  B182     1.0000 0.70500  0.79499  0.50000  Biso   1.000  B 
  B183     1.0000 0.76751  0.81558  0.50000  Biso   1.000  B 
  B184     1.0000 0.81563  0.76751  0.50000  Biso   1.000  B 
  B185     1.0000 0.86954  0.77872  0.50000  Biso   1.000  B 
  N20      1.0000 0.77812  0.87604  0.54121  Biso   1.000  N 
  B186     1.0000 0.67046  0.90470  0.50000  Biso   1.000  B 
  B187     1.0000 0.65360  0.84639  0.50000  Biso   1.000  B 
  B188     1.0000 0.59529  0.82953  0.50000  Biso   1.000  B 
  H181     1.0000 0.74582  0.60082  0.42840  Biso   1.000  H 
  C91      1.0000 0.65902  0.59202  0.48680  Biso   1.000  C 
  H182     1.0000 0.61351  0.61514  0.46944  Biso   1.000  H 
  C92      1.0000 0.66843  0.60016  0.55597  Biso   1.000  C 
  C93      1.0000 0.66216  0.51994  0.48254  Biso   1.000  C 
  C94      1.0000 0.72344  0.51074  0.52303  Biso   1.000  C 
  H183     1.0000 0.76416  0.51000  0.49044  Biso   1.000  H 
  H184     1.0000 0.72198  0.46241  0.54494  Biso   1.000  H 
  C95      1.0000 0.72873  0.57645  0.56931  Biso   1.000  C 
  H185     1.0000 0.63435  0.56953  0.57153  Biso   1.000  H 
  H186     1.0000 0.66596  0.64711  0.58057  Biso   1.000  H 
  H187     1.0000 0.76574  0.60773  0.56932  Biso   1.000  H 
  H188     1.0000 0.72639  0.58712  0.62079  Biso   1.000  H 
  H189     1.0000 0.65800  0.50604  0.43479  Biso   1.000  H 
  H190     1.0000 0.62146  0.49482  0.50645  Biso   1.000  H 
  C96      1.0000 0.80965  0.93386  0.51616  Biso   1.000  C 
  H191     1.0000 0.74623  0.88206  0.58020  Biso   1.000  H 
  C97      1.0000 0.77336  0.99689  0.51336  Biso   1.000  C 
  H192     1.0000 0.73149  0.99207  0.48628  Biso   1.000  H 
  C98      1.0000 0.82162  0.03665  0.48083  Biso   1.000  C 
  H193     1.0000 0.76226  0.02720  0.54894  Biso   1.000  H 
  C99      1.0000 0.86107  0.99144  0.44429  Biso   1.000  C 
  H194     1.0000 0.85415  0.06678  0.51106  Biso   1.000  H 
  H195     1.0000 0.79299  0.06408  0.44952  Biso   1.000  H 
  C100     1.0000 0.82373  0.92817  0.44665  Biso   1.000  C 
  H196     1.0000 0.90895  0.99141  0.46584  Biso   1.000  H 
  H197     1.0000 0.86611  0.01105  0.39981  Biso   1.000  H 
  H198     1.0000 0.85041  0.88795  0.43288  Biso   1.000  H 
  H199     1.0000 0.77784  0.92131  0.42029  Biso   1.000  H 
  H200     1.0000 0.84650  0.94882  0.55053  Biso   1.000  H 
  B189     1.0000 0.34640  0.15360  0.50000  Biso   1.000  B 
  B190     1.0000 0.40471  0.17046  0.50000  Biso   1.000  B 
  B191     1.0000 0.32954  0.09529  0.50000  Biso   1.000  B 
  B192     1.0000 0.29500  0.20500  0.50000  Biso   1.000  B 
  B193     1.0000 0.23249  0.18437  0.50000  Biso   1.000  B 
  N21      1.0000 0.21778  0.11970  0.46360  Biso   1.000  N 
  B194     1.0000 0.13051  0.22128  0.50000  Biso   1.000  B 
  B195     1.0000 0.18442  0.23249  0.50000  Biso   1.000  B 
  B196     1.0000 0.20500  0.29500  0.50000  Biso   1.000  B 
  B197     1.0000 0.26751  0.31558  0.50000  Biso   1.000  B 
  B198     1.0000 0.31563  0.26751  0.50000  Biso   1.000  B 
  B199     1.0000 0.36954  0.27872  0.50000  Biso   1.000  B 
  N22      1.0000 0.28013  0.37526  0.54187  Biso   1.000  N 
  B200     1.0000 0.17046  0.40470  0.50000  Biso   1.000  B 
  B201     1.0000 0.15360  0.34640  0.50000  Biso   1.000  B 
  B202     1.0000 0.09529  0.32954  0.50000  Biso   1.000  B 
  H201     1.0000 0.25071  0.10648  0.42548  Biso   1.000  H 
  C101     1.0000 0.15700  0.08498  0.47757  Biso   1.000  C 
  H202     1.0000 0.12432  0.12044  0.47912  Biso   1.000  H 
  C102     1.0000 0.16775  0.04790  0.53792  Biso   1.000  C 
  C103     1.0000 0.11059  0.04203  0.43958  Biso   1.000  C 
  C104     1.0000 0.09697  0.98600  0.48143  Biso   1.000  C 
  H203     1.0000 0.09083  0.94370  0.45238  Biso   1.000  H 
  H204     1.0000 0.05110  0.99818  0.50410  Biso   1.000  H 
  C105     1.0000 0.15125  0.97969  0.52415  Biso   1.000  C 
  H205     1.0000 0.14705  0.06936  0.57922  Biso   1.000  H 
  H206     1.0000 0.22153  0.05223  0.54853  Biso   1.000  H 
  H207     1.0000 0.19088  0.96983  0.49219  Biso   1.000  H 
  H208     1.0000 0.15609  0.94652  0.56498  Biso   1.000  H 
  H209     1.0000 0.13751  0.02327  0.40152  Biso   1.000  H 
  H210     1.0000 0.06419  0.06364  0.42391  Biso   1.000  H 
  C106     1.0000 0.30808  0.43443  0.51886  Biso   1.000  C 
  H211     1.0000 0.24620  0.38080  0.57866  Biso   1.000  H 
  C107     1.0000 0.26996  0.49631  0.51656  Biso   1.000  C 
  H212     1.0000 0.22791  0.49191  0.48889  Biso   1.000  H 
  C108     1.0000 0.31499  0.53530  0.47998  Biso   1.000  C 
  H213     1.0000 0.25954  0.53094  0.55133  Biso   1.000  H 
  C109     1.0000 0.35925  0.49093  0.44735  Biso   1.000  C 
  H214     1.0000 0.34845  0.56599  0.50954  Biso   1.000  H 
  H215     1.0000 0.28724  0.56370  0.44939  Biso   1.000  H 
  C110     1.0000 0.32233  0.42840  0.44983  Biso   1.000  C 
  H216     1.0000 0.40618  0.48894  0.47454  Biso   1.000  H 
  H217     1.0000 0.36769  0.50999  0.40322  Biso   1.000  H 
  H218     1.0000 0.35118  0.38826  0.43141  Biso   1.000  H 
  H219     1.0000 0.27518  0.42092  0.42667  Biso   1.000  H 
  H220     1.0000 0.34914  0.44835  0.54988  Biso   1.000  H 
  B203     1.0000 0.34640  0.65360  0.00000  Biso   1.000  B 
  B204     1.0000 0.40471  0.67046  0.00000  Biso   1.000  B 
  B205     1.0000 0.32954  0.59529  0.00000  Biso   1.000  B 
  B206     1.0000 0.29500  0.70500  0.00000  Biso   1.000  B 
  B207     1.0000 0.23249  0.68437  0.00000  Biso   1.000  B 
  N23      1.0000 0.21301  0.62328  0.96371  Biso   1.000  N 
  B208     1.0000 0.13051  0.72128  0.00000  Biso   1.000  B 
  B209     1.0000 0.18442  0.73248  0.00000  Biso   1.000  B 
  B210     1.0000 0.20500  0.79499  0.00000  Biso   1.000  B 
  B211     1.0000 0.26751  0.81558  0.00000  Biso   1.000  B 
  B212     1.0000 0.31563  0.76751  0.00000  Biso   1.000  B 
  B213     1.0000 0.36954  0.77872  0.00000  Biso   1.000  B 
  N24      1.0000 0.27581  0.87587  0.04389  Biso   1.000  N 
  B214     1.0000 0.17046  0.90470  0.00000  Biso   1.000  B 
  B215     1.0000 0.15360  0.84639  0.00000  Biso   1.000  B 
  B216     1.0000 0.09529  0.82953  0.00000  Biso   1.000  B 
  H221     1.0000 0.24478  0.60240  0.93328  Biso   1.000  H 
  C111     1.0000 0.15987  0.58737  0.99566  Biso   1.000  C 
  H222     1.0000 0.11316  0.58754  0.97091  Biso   1.000  H 
  C112     1.0000 0.16606  0.60822  0.06495  Biso   1.000  C 
  C113     1.0000 0.16924  0.51487  0.00085  Biso   1.000  C 
  C114     1.0000 0.23316  0.51760  0.03068  Biso   1.000  C 
  H223     1.0000 0.26293  0.51641  0.98715  Biso   1.000  H 
  H224     1.0000 0.23883  0.46833  0.04676  Biso   1.000  H 
  C115     1.0000 0.23366  0.58628  0.08001  Biso   1.000  C 
  H225     1.0000 0.13216  0.57892  0.09384  Biso   1.000  H 
  H226     1.0000 0.15868  0.65952  0.08368  Biso   1.000  H 
  H227     1.0000 0.27634  0.61592  0.08239  Biso   1.000  H 
  H228     1.0000 0.22426  0.59453  0.13155  Biso   1.000  H 
  H229     1.0000 0.16730  0.48941  0.95303  Biso   1.000  H 
  H230     1.0000 0.13537  0.49251  0.03221  Biso   1.000  H 
  C116     1.0000 0.30414  0.93439  0.01948  Biso   1.000  C 
  H231     1.0000 0.24367  0.88278  0.08245  Biso   1.000  H 
  C117     1.0000 0.27075  0.99936  0.01591  Biso   1.000  C 
  H232     1.0000 0.22956  0.99761  0.98729  Biso   1.000  H 
  C118     1.0000 0.32188  0.03608  0.98289  Biso   1.000  C 
  H233     1.0000 0.25841  0.03310  0.05163  Biso   1.000  H 
  C119     1.0000 0.35925  0.98723  0.94898  Biso   1.000  C 
  H234     1.0000 0.35482  0.06150  0.01717  Biso   1.000  H 
  H235     1.0000 0.29800  0.07054  0.95371  Biso   1.000  H 
  C120     1.0000 0.31781  0.92776  0.94884  Biso   1.000  C 
  H236     1.0000 0.40788  0.98275  0.97305  Biso   1.000  H 
  H237     1.0000 0.36588  0.00811  0.90626  Biso   1.000  H 
  H238     1.0000 0.34244  0.88547  0.93521  Biso   1.000  H 
  H239     1.0000 0.26947  0.92250  0.92456  Biso   1.000  H 
  H240     1.0000 0.34221  0.94635  0.05539  Biso   1.000  H 
  B217     1.0000 0.84640  0.84640  0.00000  Biso   1.000  B 
  B218     1.0000 0.90471  0.82954  0.00000  Biso   1.000  B 
  B219     1.0000 0.82954  0.90471  0.00000  Biso   1.000  B 
  B220     1.0000 0.79500  0.79500  0.00000  Biso   1.000  B 
  B221     1.0000 0.73249  0.81563  0.00000  Biso   1.000  B 
  N25      1.0000 0.71019  0.87609  0.96492  Biso   1.000  N 
  B222     1.0000 0.63051  0.77872  0.00000  Biso   1.000  B 
  B223     1.0000 0.68442  0.76752  0.00000  Biso   1.000  B 
  B224     1.0000 0.70500  0.70501  0.00000  Biso   1.000  B 
  B225     1.0000 0.76751  0.68442  0.00000  Biso   1.000  B 
  B226     1.0000 0.81563  0.73249  0.00000  Biso   1.000  B 
  B227     1.0000 0.86954  0.72128  0.00000  Biso   1.000  B 
  N26      1.0000 0.78049  0.63796  0.05642  Biso   1.000  N 
  B228     1.0000 0.67046  0.59530  0.00000  Biso   1.000  B 
  B229     1.0000 0.65360  0.65361  0.00000  Biso   1.000  B 
  B230     1.0000 0.59529  0.67047  0.00000  Biso   1.000  B 
  H241     1.0000 0.66642  0.89092  0.98411  Biso   1.000  H 
  C121     1.0000 0.69244  0.85132  0.89969  Biso   1.000  C 
  H242     1.0000 0.67524  0.80127  0.89596  Biso   1.000  H 
  C122     1.0000 0.74723  0.86121  0.85856  Biso   1.000  C 
  C123     1.0000 0.64129  0.88464  0.86094  Biso   1.000  C 
  C124     1.0000 0.64595  0.85649  0.79483  Biso   1.000  C 
  H243     1.0000 0.62350  0.88378  0.75392  Biso   1.000  H 
  H244     1.0000 0.62515  0.80633  0.79433  Biso   1.000  H 
  C125     1.0000 0.71702  0.85500  0.79099  Biso   1.000  C 
  H245     1.0000 0.78412  0.83009  0.87471  Biso   1.000  H 
  H246     1.0000 0.76439  0.90819  0.87072  Biso   1.000  H 
  H247     1.0000 0.73079  0.89140  0.75815  Biso   1.000  H 
  H248     1.0000 0.72473  0.80762  0.76766  Biso   1.000  H 
  H249     1.0000 0.64257  0.93539  0.86772  Biso   1.000  H 
  H250     1.0000 0.59653  0.86951  0.87185  Biso   1.000  H 
  C126     1.0000 0.81513  0.66627  0.11444  Biso   1.000  C 
  H251     1.0000 0.73844  0.62097  0.07522  Biso   1.000  H 
  C127     1.0000 0.81812  0.61785  0.16151  Biso   1.000  C 
  H252     1.0000 0.76668  0.60679  0.16720  Biso   1.000  H 
  C128     1.0000 0.84773  0.64323  0.22125  Biso   1.000  C 
  H253     1.0000 0.85064  0.57853  0.14184  Biso   1.000  H 
  C129     1.0000 0.83230  0.71425  0.21612  Biso   1.000  C 
  H254     1.0000 0.82549  0.62267  0.26579  Biso   1.000  H 
  H255     1.0000 0.89716  0.63582  0.22635  Biso   1.000  H 
  C130     1.0000 0.79257  0.72334  0.15067  Biso   1.000  C 
  H256     1.0000 0.87699  0.74308  0.21708  Biso   1.000  H 
  H257     1.0000 0.80641  0.72801  0.25957  Biso   1.000  H 
  H258     1.0000 0.80505  0.76899  0.12662  Biso   1.000  H 
  H259     1.0000 0.74217  0.71893  0.15706  Biso   1.000  H 
  H260     1.0000 0.85723  0.68266  0.10162  Biso   1.000  H 
  B231     1.0000 0.84640  0.34640  0.50000  Biso   1.000  B 
  B232     1.0000 0.90471  0.32954  0.50000  Biso   1.000  B 
  B233     1.0000 0.82954  0.40471  0.50000  Biso   1.000  B 
  B234     1.0000 0.79500  0.29500  0.50000  Biso   1.000  B 
  B235     1.0000 0.73249  0.31563  0.50000  Biso   1.000  B 
  N27      1.0000 0.71231  0.37683  0.46515  Biso   1.000  N 
  B236     1.0000 0.63051  0.27872  0.50000  Biso   1.000  B 
  B237     1.0000 0.68442  0.26751  0.50000  Biso   1.000  B 
  B238     1.0000 0.70500  0.20500  0.50000  Biso   1.000  B 
  B239     1.0000 0.76751  0.18442  0.50000  Biso   1.000  B 
  B240     1.0000 0.81563  0.23249  0.50000  Biso   1.000  B 
  B241     1.0000 0.86954  0.22128  0.50000  Biso   1.000  B 
  N28      1.0000 0.77947  0.13232  0.55325  Biso   1.000  N 
  B242     1.0000 0.67046  0.09530  0.50000  Biso   1.000  B 
  B243     1.0000 0.65360  0.15360  0.50000  Biso   1.000  B 
  B244     1.0000 0.59529  0.17046  0.50000  Biso   1.000  B 
  H261     1.0000 0.66920  0.39106  0.48707  Biso   1.000  H 
  C131     1.0000 0.68959  0.35290  0.40178  Biso   1.000  C 
  H262     1.0000 0.67155  0.30183  0.39824  Biso   1.000  H 
  C132     1.0000 0.73975  0.35964  0.35414  Biso   1.000  C 
  C133     1.0000 0.63875  0.38964  0.36723  Biso   1.000  C 
  C134     1.0000 0.63767  0.35996  0.29704  Biso   1.000  C 
  H263     1.0000 0.61877  0.38872  0.25580  Biso   1.000  H 
  H264     1.0000 0.61570  0.31122  0.29613  Biso   1.000  H 
  C135     1.0000 0.70611  0.35375  0.28436  Biso   1.000  C 
  H265     1.0000 0.77409  0.32649  0.36295  Biso   1.000  H 
  H266     1.0000 0.76582  0.40283  0.36276  Biso   1.000  H 
  H267     1.0000 0.72374  0.39066  0.25335  Biso   1.000  H 
  H268     1.0000 0.71301  0.30798  0.25968  Biso   1.000  H 
  H269     1.0000 0.64842  0.43946  0.36587  Biso   1.000  H 
  H270     1.0000 0.59828  0.38879  0.39299  Biso   1.000  H 
  C136     1.0000 0.81573  0.16291  0.60792  Biso   1.000  C 
  H271     1.0000 0.73601  0.12256  0.57714  Biso   1.000  H 
  C137     1.0000 0.81761  0.11993  0.66261  Biso   1.000  C 
  H272     1.0000 0.76799  0.11071  0.67998  Biso   1.000  H 
  C138     1.0000 0.84669  0.15122  0.72009  Biso   1.000  C 
  H273     1.0000 0.84207  0.07673  0.64362  Biso   1.000  H 
  C139     1.0000 0.82233  0.21902  0.71503  Biso   1.000  C 
  H274     1.0000 0.84099  0.12455  0.76670  Biso   1.000  H 
  H275     1.0000 0.89719  0.14883  0.70846  Biso   1.000  H 
  C140     1.0000 0.79365  0.22248  0.64489  Biso   1.000  C 
  H276     1.0000 0.86222  0.25533  0.72159  Biso   1.000  H 
  H277     1.0000 0.79321  0.22383  0.75658  Biso   1.000  H 
  H278     1.0000 0.81301  0.26658  0.62192  Biso   1.000  H 
  H279     1.0000 0.74232  0.22034  0.64999  Biso   1.000  H 
  H280     1.0000 0.86235  0.16522  0.58727  Biso   1.000  H 
  B245     1.0000 0.34640  0.84640  0.50000  Biso   1.000  B 
  B246     1.0000 0.40471  0.82954  0.50000  Biso   1.000  B 
  B247     1.0000 0.32954  0.90471  0.50000  Biso   1.000  B 
  B248     1.0000 0.29500  0.79500  0.50000  Biso   1.000  B 
  B249     1.0000 0.23249  0.81563  0.50000  Biso   1.000  B 
  N29      1.0000 0.21215  0.87386  0.46019  Biso   1.000  N 
  B250     1.0000 0.13051  0.77872  0.50000  Biso   1.000  B 
  B251     1.0000 0.18442  0.76752  0.50000  Biso   1.000  B 
  B252     1.0000 0.20500  0.70501  0.50000  Biso   1.000  B 
  B253     1.0000 0.26751  0.68442  0.50000  Biso   1.000  B 
  B254     1.0000 0.31563  0.73249  0.50000  Biso   1.000  B 
  B255     1.0000 0.36954  0.72128  0.50000  Biso   1.000  B 
  N30      1.0000 0.27964  0.63517  0.55548  Biso   1.000  N 
  B256     1.0000 0.17046  0.59530  0.50000  Biso   1.000  B 
  B257     1.0000 0.15360  0.65361  0.50000  Biso   1.000  B 
  B258     1.0000 0.09529  0.67047  0.50000  Biso   1.000  B 
  H281     1.0000 0.16664  0.87765  0.48032  Biso   1.000  H 
  C141     1.0000 0.19128  0.85143  0.39313  Biso   1.000  C 
  H282     1.0000 0.17323  0.79953  0.39137  Biso   1.000  H 
  C142     1.0000 0.24212  0.85722  0.35077  Biso   1.000  C 
  C143     1.0000 0.13954  0.88804  0.35060  Biso   1.000  C 
  C144     1.0000 0.14160  0.85403  0.28390  Biso   1.000  C 
  H283     1.0000 0.12313  0.87985  0.24067  Biso   1.000  H 
  H284     1.0000 0.11891  0.80651  0.28877  Biso   1.000  H 
  C145     1.0000 0.21003  0.84825  0.27995  Biso   1.000  C 
  H285     1.0000 0.27761  0.82715  0.36422  Biso   1.000  H 
  H286     1.0000 0.26145  0.90287  0.36233  Biso   1.000  H 
  H287     1.0000 0.22768  0.88544  0.25002  Biso   1.000  H 
  H288     1.0000 0.22159  0.80073  0.25759  Biso   1.000  H 
  H289     1.0000 0.14190  0.94074  0.35611  Biso   1.000  H 
  H290     1.0000 0.09524  0.87703  0.36588  Biso   1.000  H 
  C146     1.0000 0.32930  0.65627  0.60221  Biso   1.000  C 
  H291     1.0000 0.23780  0.62834  0.58266  Biso   1.000  H 
  C147     1.0000 0.33204  0.61297  0.65588  Biso   1.000  C 
  H292     1.0000 0.28376  0.60639  0.67218  Biso   1.000  H 
  C148     1.0000 0.35808  0.64537  0.71393  Biso   1.000  C 
  H293     1.0000 0.35594  0.56693  0.64304  Biso   1.000  H 
  C149     1.0000 0.33759  0.71360  0.70819  Biso   1.000  C 
  H294     1.0000 0.34139  0.62476  0.75983  Biso   1.000  H 
  H295     1.0000 0.40463  0.63642  0.70441  Biso   1.000  H 
  C150     1.0000 0.31481  0.71823  0.63842  Biso   1.000  C 
  H296     1.0000 0.37514  0.74678  0.72318  Biso   1.000  H 
  H297     1.0000 0.29516  0.72253  0.74170  Biso   1.000  H 
  H298     1.0000 0.33757  0.75941  0.61856  Biso   1.000  H 
  H299     1.0000 0.26017  0.72318  0.63695  Biso   1.000  H 
  H300     1.0000 0.37495  0.65543  0.57901  Biso   1.000  H 
  B259     1.0000 0.34640  0.34640  0.00000  Biso   1.000  B 
  B260     1.0000 0.40471  0.32954  0.00000  Biso   1.000  B 
  B261     1.0000 0.32954  0.40471  0.00000  Biso   1.000  B 
  B262     1.0000 0.29500  0.29500  0.00000  Biso   1.000  B 
  B263     1.0000 0.23249  0.31563  0.00000  Biso   1.000  B 
  N31      1.0000 0.21240  0.37816  0.96663  Biso   1.000  N 
  B264     1.0000 0.13051  0.27872  0.00000  Biso   1.000  B 
  B265     1.0000 0.18442  0.26751  0.00000  Biso   1.000  B 
  B266     1.0000 0.20500  0.20500  0.00000  Biso   1.000  B 
  B267     1.0000 0.26751  0.18442  0.00000  Biso   1.000  B 
  B268     1.0000 0.31563  0.23249  0.00000  Biso   1.000  B 
  B269     1.0000 0.36954  0.22128  0.00000  Biso   1.000  B 
  N32      1.0000 0.27909  0.13753  0.05712  Biso   1.000  N 
  B270     1.0000 0.17046  0.09530  0.00000  Biso   1.000  B 
  B271     1.0000 0.15360  0.15360  0.00000  Biso   1.000  B 
  B272     1.0000 0.09529  0.17046  0.00000  Biso   1.000  B 
  H301     1.0000 0.17056  0.38984  0.98849  Biso   1.000  H 
  C151     1.0000 0.18966  0.35634  0.90192  Biso   1.000  C 
  H302     1.0000 0.17043  0.30574  0.89909  Biso   1.000  H 
  C152     1.0000 0.23881  0.36107  0.85446  Biso   1.000  C 
  C153     1.0000 0.13709  0.39180  0.86699  Biso   1.000  C 
  C154     1.0000 0.13692  0.36449  0.79620  Biso   1.000  C 
  H303     1.0000 0.11260  0.39243  0.75750  Biso   1.000  H 
  H304     1.0000 0.11931  0.31499  0.79355  Biso   1.000  H 
  C155     1.0000 0.20822  0.35726  0.78560  Biso   1.000  C 
  H305     1.0000 0.27248  0.32489  0.86194  Biso   1.000  H 
  H306     1.0000 0.26558  0.40416  0.86274  Biso   1.000  H 
  H307     1.0000 0.22654  0.39035  0.75325  Biso   1.000  H 
  H308     1.0000 0.21380  0.30797  0.76644  Biso   1.000  H 
  H309     1.0000 0.14630  0.44191  0.87091  Biso   1.000  H 
  H310     1.0000 0.09730  0.38458  0.89317  Biso   1.000  H 
  C156     1.0000 0.31023  0.16630  0.11469  Biso   1.000  C 
  H311     1.0000 0.23571  0.12566  0.07750  Biso   1.000  H 
  C157     1.0000 0.31990  0.12042  0.16586  Biso   1.000  C 
  H312     1.0000 0.27058  0.11170  0.18519  Biso   1.000  H 
  C158     1.0000 0.35206  0.15694  0.21861  Biso   1.000  C 
  H313     1.0000 0.34440  0.07723  0.14482  Biso   1.000  H 
  C159     1.0000 0.32899  0.22591  0.21153  Biso   1.000  C 
  H314     1.0000 0.34593  0.13520  0.26816  Biso   1.000  H 
  H315     1.0000 0.39944  0.15581  0.20895  Biso   1.000  H 
  C160     1.0000 0.28781  0.22759  0.14743  Biso   1.000  C 
  H316     1.0000 0.36876  0.26255  0.20773  Biso   1.000  H 
  H317     1.0000 0.30611  0.23815  0.25287  Biso   1.000  H 
  H318     1.0000 0.29436  0.27410  0.12256  Biso   1.000  H 
  H319     1.0000 0.23909  0.21647  0.16077  Biso   1.000  H 
  H320     1.0000 0.35347  0.18445  0.09931  Biso   1.000  H 
  B273     1.0000 0.00000  0.84640  0.15360  Biso   1.000  B 
  B274     1.0000 0.00000  0.90471  0.17046  Biso   1.000  B 
  B275     1.0000 0.00000  0.82954  0.09529  Biso   1.000  B 
  B276     1.0000 0.00000  0.79500  0.20500  Biso   1.000  B 
  B277     1.0000 0.00000  0.73249  0.18437  Biso   1.000  B 
  N33      1.0000 0.95643  0.71560  0.12861  Biso   1.000  N 
  B278     1.0000 0.00000  0.63051  0.22128  Biso   1.000  B 
  B279     1.0000 0.00000  0.68442  0.23249  Biso   1.000  B 
  B280     1.0000 0.00000  0.70500  0.29500  Biso   1.000  B 
  B281     1.0000 0.00000  0.76751  0.31558  Biso   1.000  B 
  B282     1.0000 0.00000  0.81563  0.26751  Biso   1.000  B 
  B283     1.0000 0.00000  0.86954  0.27872  Biso   1.000  B 
  N34      1.0000 0.04138  0.78043  0.37607  Biso   1.000  N 
  B284     1.0000 0.00000  0.67046  0.40470  Biso   1.000  B 
  B285     1.0000 0.00000  0.65360  0.34640  Biso   1.000  B 
  B286     1.0000 0.00000  0.59529  0.32954  Biso   1.000  B 
  H321     1.0000 0.91869  0.75159  0.12066  Biso   1.000  H 
  C161     1.0000 0.96815  0.65174  0.10079  Biso   1.000  C 
  H322     1.0000 0.94890  0.62016  0.13136  Biso   1.000  H 
  C162     1.0000 0.03515  0.64696  0.08972  Biso   1.000  C 
  C163     1.0000 0.94424  0.64417  0.03111  Biso   1.000  C 
  C164     1.0000 0.98333  0.70205  0.00373  Biso   1.000  C 
  H323     1.0000 0.96549  0.74811  0.02052  Biso   1.000  H 
  H324     1.0000 0.00722  0.71255  0.95743  Biso   1.000  H 
  C165     1.0000 0.04156  0.68910  0.03607  Biso   1.000  C 
  H325     1.0000 0.04011  0.59653  0.07784  Biso   1.000  H 
  H326     1.0000 0.06808  0.66323  0.13021  Biso   1.000  H 
  H327     1.0000 0.06152  0.73128  0.05761  Biso   1.000  H 
  H328     1.0000 0.06796  0.65698  0.00006  Biso   1.000  H 
  H329     1.0000 0.89704  0.63778  0.02699  Biso   1.000  H 
  H330     1.0000 0.96035  0.59882  0.00811  Biso   1.000  H 
  C166     1.0000 0.01730  0.80742  0.43333  Biso   1.000  C 
  H331     1.0000 0.07873  0.74717  0.38528  Biso   1.000  H 
  C167     1.0000 0.01106  0.77500  0.50085  Biso   1.000  C 
  H332     1.0000 0.97366  0.74481  0.50739  Biso   1.000  H 
  C168     1.0000 0.99533  0.83410  0.53662  Biso   1.000  C 
  H333     1.0000 0.04885  0.75522  0.53079  Biso   1.000  H 
  C169     1.0000 0.95099  0.86781  0.49186  Biso   1.000  C 
  H334     1.0000 0.04229  0.85756  0.54244  Biso   1.000  H 
  H335     1.0000 0.97277  0.82240  0.57960  Biso   1.000  H 
  C170     1.0000 0.95074  0.82977  0.42884  Biso   1.000  C 
  H336     1.0000 0.96851  0.91627  0.48907  Biso   1.000  H 
  H337     1.0000 0.90447  0.86715  0.51099  Biso   1.000  H 
  H338     1.0000 0.93205  0.85530  0.38788  Biso   1.000  H 
  H339     1.0000 0.92384  0.78424  0.42356  Biso   1.000  H 
  H340     1.0000 0.05233  0.84753  0.44280  Biso   1.000  H 
  B287     1.0000 0.00000  0.34640  0.65360  Biso   1.000  B 
  B288     1.0000 0.00000  0.40471  0.67046  Biso   1.000  B 
  B289     1.0000 0.00000  0.32954  0.59529  Biso   1.000  B 
  B290     1.0000 0.00000  0.29500  0.70500  Biso   1.000  B 
  B291     1.0000 0.00000  0.23249  0.68437  Biso   1.000  B 
  N35      1.0000 0.96655  0.21455  0.62057  Biso   1.000  N 
  B292     1.0000 0.00000  0.13051  0.72128  Biso   1.000  B 
  B293     1.0000 0.00000  0.18442  0.73248  Biso   1.000  B 
  B294     1.0000 0.00000  0.20500  0.79499  Biso   1.000  B 
  B295     1.0000 0.00000  0.26751  0.81558  Biso   1.000  B 
  B296     1.0000 0.00000  0.31563  0.76751  Biso   1.000  B 
  B297     1.0000 0.00000  0.36954  0.77872  Biso   1.000  B 
  N36      1.0000 0.04319  0.28116  0.87368  Biso   1.000  N 
  B298     1.0000 0.00000  0.17046  0.90470  Biso   1.000  B 
  B299     1.0000 0.00000  0.15360  0.84639  Biso   1.000  B 
  B300     1.0000 0.00000  0.09529  0.82953  Biso   1.000  B 
  H341     1.0000 0.92018  0.22166  0.63350  Biso   1.000  H 
  C171     1.0000 0.97605  0.14512  0.59738  Biso   1.000  C 
  H342     1.0000 0.94406  0.11396  0.62172  Biso   1.000  H 
  C172     1.0000 0.04132  0.12670  0.60738  Biso   1.000  C 
  C173     1.0000 0.97382  0.13725  0.52431  Biso   1.000  C 
  C174     1.0000 0.02637  0.18082  0.50723  Biso   1.000  C 
  H343     1.0000 0.00942  0.23322  0.50398  Biso   1.000  H 
  H344     1.0000 0.04776  0.17172  0.46125  Biso   1.000  H 
  C175     1.0000 0.07324  0.17123  0.56620  Biso   1.000  C 
  H345     1.0000 0.05223  0.08027  0.58861  Biso   1.000  H 
  H346     1.0000 0.06822  0.13493  0.65019  Biso   1.000  H 
  H347     1.0000 0.07668  0.21821  0.59444  Biso   1.000  H 
  H348     1.0000 0.12129  0.15733  0.56382  Biso   1.000  H 
  H349     1.0000 0.92938  0.15172  0.50924  Biso   1.000  H 
  H350     1.0000 0.98256  0.08696  0.50690  Biso   1.000  H 
  C176     1.0000 0.01433  0.30373  0.93350  Biso   1.000  C 
  H351     1.0000 0.08185  0.24843  0.87828  Biso   1.000  H 
  C177     1.0000 0.00978  0.26631  0.99630  Biso   1.000  C 
  H352     1.0000 0.98901  0.22175  0.99146  Biso   1.000  H 
  C178     1.0000 0.97611  0.31204  0.03780  Biso   1.000  C 
  H353     1.0000 0.04736  0.25712  0.02401  Biso   1.000  H 
  C179     1.0000 0.94275  0.35752  0.99320  Biso   1.000  C 
  H354     1.0000 0.01444  0.34266  0.06173  Biso   1.000  H 
  H355     1.0000 0.94710  0.28572  0.06866  Biso   1.000  H 
  C180     1.0000 0.94621  0.32085  0.92860  Biso   1.000  C 
  H356     1.0000 0.97038  0.40137  0.99075  Biso   1.000  H 
  H357     1.0000 0.89820  0.36698  0.01058  Biso   1.000  H 
  H358     1.0000 0.93404  0.34648  0.88645  Biso   1.000  H 
  H359     1.0000 0.92186  0.27243  0.92006  Biso   1.000  H 
  H360     1.0000 0.04641  0.33961  0.95154  Biso   1.000  H 
  B301     1.0000 0.50000  0.84640  0.65360  Biso   1.000  B 
  B302     1.0000 0.50000  0.90471  0.67046  Biso   1.000  B 
  B303     1.0000 0.50000  0.82954  0.59529  Biso   1.000  B 
  B304     1.0000 0.50000  0.79500  0.70500  Biso   1.000  B 
  B305     1.0000 0.50000  0.73249  0.68437  Biso   1.000  B 
  N37      1.0000 0.45804  0.71429  0.62566  Biso   1.000  N 
  B306     1.0000 0.50000  0.63051  0.72128  Biso   1.000  B 
  B307     1.0000 0.50000  0.68442  0.73248  Biso   1.000  B 
  B308     1.0000 0.50000  0.70500  0.79499  Biso   1.000  B 
  B309     1.0000 0.50000  0.76751  0.81558  Biso   1.000  B 
  B310     1.0000 0.50000  0.81563  0.76751  Biso   1.000  B 
  B311     1.0000 0.50000  0.86954  0.77872  Biso   1.000  B 
  N38      1.0000 0.54062  0.77899  0.87565  Biso   1.000  N 
  B312     1.0000 0.50000  0.67046  0.90470  Biso   1.000  B 
  B313     1.0000 0.50000  0.65360  0.84639  Biso   1.000  B 
  B314     1.0000 0.50000  0.59529  0.82953  Biso   1.000  B 
  H361     1.0000 0.43553  0.75086  0.59946  Biso   1.000  H 
  C181     1.0000 0.48886  0.66188  0.58817  Biso   1.000  C 
  H362     1.0000 0.47026  0.61513  0.60594  Biso   1.000  H 
  C182     1.0000 0.55718  0.66893  0.59896  Biso   1.000  C 
  C183     1.0000 0.48451  0.66991  0.51645  Biso   1.000  C 
  C184     1.0000 0.52436  0.72930  0.51140  Biso   1.000  C 
  H363     1.0000 0.48937  0.76636  0.50719  Biso   1.000  H 
  H364     1.0000 0.54506  0.72556  0.46432  Biso   1.000  H 
  C185     1.0000 0.57026  0.73190  0.57803  Biso   1.000  C 
  H365     1.0000 0.57205  0.63590  0.56779  Biso   1.000  H 
  H366     1.0000 0.58329  0.66416  0.64386  Biso   1.000  H 
  H367     1.0000 0.57087  0.76698  0.61236  Biso   1.000  H 
  H368     1.0000 0.62115  0.73196  0.58588  Biso   1.000  H 
  H369     1.0000 0.43956  0.66942  0.49487  Biso   1.000  H 
  H370     1.0000 0.51088  0.62878  0.49121  Biso   1.000  H 
  C186     1.0000 0.51288  0.80443  0.93216  Biso   1.000  C 
  H371     1.0000 0.58489  0.75483  0.87859  Biso   1.000  H 
  C187     1.0000 0.51123  0.76908  0.99283  Biso   1.000  C 
  H372     1.0000 0.49027  0.72529  0.98880  Biso   1.000  H 
  C188     1.0000 0.47498  0.81547  0.03136  Biso   1.000  C 
  H373     1.0000 0.54833  0.76350  0.02568  Biso   1.000  H 
  C189     1.0000 0.44625  0.86281  0.98636  Biso   1.000  C 
  H374     1.0000 0.50270  0.84537  0.06094  Biso   1.000  H 
  H375     1.0000 0.44201  0.78041  0.05892  Biso   1.000  H 
  C190     1.0000 0.44529  0.82176  0.92514  Biso   1.000  C 
  H376     1.0000 0.47819  0.90585  0.98677  Biso   1.000  H 
  H377     1.0000 0.40503  0.87911  0.01057  Biso   1.000  H 
  H378     1.0000 0.42805  0.84557  0.88255  Biso   1.000  H 
  H379     1.0000 0.41972  0.77503  0.91923  Biso   1.000  H 
  H380     1.0000 0.54730  0.84284  0.94752  Biso   1.000  H 
  B315     1.0000 0.50000  0.34640  0.15360  Biso   1.000  B 
  B316     1.0000 0.50000  0.40471  0.17046  Biso   1.000  B 
  B317     1.0000 0.50000  0.32954  0.09529  Biso   1.000  B 
  B318     1.0000 0.50000  0.29500  0.20500  Biso   1.000  B 
  B319     1.0000 0.50000  0.23249  0.18437  Biso   1.000  B 
  N39      1.0000 0.45857  0.21788  0.12627  Biso   1.000  N 
  B320     1.0000 0.50000  0.13051  0.22128  Biso   1.000  B 
  B321     1.0000 0.50000  0.18442  0.23249  Biso   1.000  B 
  B322     1.0000 0.50000  0.20500  0.29500  Biso   1.000  B 
  B323     1.0000 0.50000  0.26751  0.31558  Biso   1.000  B 
  B324     1.0000 0.50000  0.31563  0.26751  Biso   1.000  B 
  B325     1.0000 0.50000  0.36954  0.27872  Biso   1.000  B 
  N40      1.0000 0.54105  0.27959  0.37673  Biso   1.000  N 
  B326     1.0000 0.50000  0.17046  0.40470  Biso   1.000  B 
  B327     1.0000 0.50000  0.15360  0.34640  Biso   1.000  B 
  B328     1.0000 0.50000  0.09529  0.32954  Biso   1.000  B 
  H381     1.0000 0.42494  0.25085  0.11025  Biso   1.000  H 
  C191     1.0000 0.46362  0.15277  0.09939  Biso   1.000  C 
  H382     1.0000 0.43402  0.11901  0.12243  Biso   1.000  H 
  C192     1.0000 0.53179  0.14113  0.09592  Biso   1.000  C 
  C193     1.0000 0.45077  0.14291  0.02770  Biso   1.000  C 
  C194     1.0000 0.49200  0.19583  0.00469  Biso   1.000  C 
  H383     1.0000 0.47336  0.24525  0.00812  Biso   1.000  H 
  H384     1.0000 0.51804  0.19088  0.96053  Biso   1.000  H 
  C195     1.0000 0.54543  0.18846  0.05022  Biso   1.000  C 
  H385     1.0000 0.54273  0.09086  0.07565  Biso   1.000  H 
  H386     1.0000 0.56768  0.15503  0.13443  Biso   1.000  H 
  H387     1.0000 0.56646  0.23686  0.06724  Biso   1.000  H 
  H388     1.0000 0.57360  0.16253  0.02563  Biso   1.000  H 
  H389     1.0000 0.40207  0.14444  0.02737  Biso   1.000  H 
  H390     1.0000 0.46918  0.09603  0.00756  Biso   1.000  H 
  C196     1.0000 0.51812  0.30508  0.43769  Biso   1.000  C 
  H391     1.0000 0.57860  0.24680  0.38261  Biso   1.000  H 
  C197     1.0000 0.51285  0.26778  0.50055  Biso   1.000  C 
  H392     1.0000 0.48784  0.22591  0.49513  Biso   1.000  H 
  C198     1.0000 0.47962  0.31577  0.54177  Biso   1.000  C 
  H393     1.0000 0.54950  0.25771  0.52928  Biso   1.000  H 
  C199     1.0000 0.44483  0.35661  0.49420  Biso   1.000  C 
  H394     1.0000 0.51095  0.35032  0.56953  Biso   1.000  H 
  H395     1.0000 0.45099  0.28632  0.57323  Biso   1.000  H 
  C200     1.0000 0.44971  0.31990  0.43158  Biso   1.000  C 
  H396     1.0000 0.46966  0.40500  0.49294  Biso   1.000  H 
  H397     1.0000 0.39984  0.36707  0.51040  Biso   1.000  H 
  H398     1.0000 0.43438  0.34478  0.39037  Biso   1.000  H 
  H399     1.0000 0.42527  0.27249  0.42376  Biso   1.000  H 
  H400     1.0000 0.55098  0.34207  0.45411  Biso   1.000  H 
  B329     1.0000 0.00000  0.84640  0.84640  Biso   1.000  B 
  B330     1.0000 0.00000  0.90471  0.82954  Biso   1.000  B 
  B331     1.0000 0.00000  0.82954  0.90471  Biso   1.000  B 
  B332     1.0000 0.00000  0.79500  0.79500  Biso   1.000  B 
  B333     1.0000 0.00000  0.73249  0.81563  Biso   1.000  B 
  N41      1.0000 0.95766  0.71028  0.87197  Biso   1.000  N 
  B334     1.0000 0.00000  0.63051  0.77872  Biso   1.000  B 
  B335     1.0000 0.00000  0.68442  0.76752  Biso   1.000  B 
  B336     1.0000 0.00000  0.70500  0.70501  Biso   1.000  B 
  B337     1.0000 0.00000  0.76751  0.68442  Biso   1.000  B 
  B338     1.0000 0.00000  0.81563  0.73249  Biso   1.000  B 
  B339     1.0000 0.00000  0.86954  0.72128  Biso   1.000  B 
  N42      1.0000 0.05815  0.77866  0.63625  Biso   1.000  N 
  B340     1.0000 0.00000  0.67046  0.59530  Biso   1.000  B 
  B341     1.0000 0.00000  0.65360  0.65361  Biso   1.000  B 
  B342     1.0000 0.00000  0.59529  0.67047  Biso   1.000  B 
  H401     1.0000 0.97508  0.66344  0.88192  Biso   1.000  H 
  C201     1.0000 0.89500  0.68977  0.84636  Biso   1.000  C 
  H402     1.0000 0.89167  0.67821  0.79364  Biso   1.000  H 
  C202     1.0000 0.85530  0.74514  0.85233  Biso   1.000  C 
  C203     1.0000 0.85452  0.64081  0.88078  Biso   1.000  C 
  C204     1.0000 0.78727  0.65060  0.85355  Biso   1.000  C 
  H403     1.0000 0.74633  0.63689  0.88554  Biso   1.000  H 
  H404     1.0000 0.78060  0.62383  0.80791  Biso   1.000  H 
  C205     1.0000 0.78724  0.71757  0.83785  Biso   1.000  C 
  H405     1.0000 0.87822  0.78255  0.82819  Biso   1.000  H 
  H406     1.0000 0.85895  0.75957  0.90164  Biso   1.000  H 
  H407     1.0000 0.75186  0.73625  0.87374  Biso   1.000  H 
  H408     1.0000 0.76642  0.72116  0.79064  Biso   1.000  H 
  H409     1.0000 0.86290  0.64814  0.93119  Biso   1.000  H 
  H410     1.0000 0.86227  0.59338  0.87054  Biso   1.000  H 
  C206     1.0000 0.11364  0.81704  0.66431  Biso   1.000  C 
  H411     1.0000 0.08104  0.73166  0.62945  Biso   1.000  H 
  C207     1.0000 0.16204  0.82550  0.61604  Biso   1.000  C 
  H412     1.0000 0.17635  0.77544  0.60414  Biso   1.000  H 
  C208     1.0000 0.22352  0.85432  0.64215  Biso   1.000  C 
  H413     1.0000 0.14240  0.85305  0.57624  Biso   1.000  H 
  C209     1.0000 0.21531  0.83966  0.71306  Biso   1.000  C 
  H414     1.0000 0.26328  0.82561  0.62266  Biso   1.000  H 
  H415     1.0000 0.23538  0.90529  0.62631  Biso   1.000  H 
  C210     1.0000 0.15561  0.79275  0.71536  Biso   1.000  C 
  H416     1.0000 0.21052  0.88240  0.74246  Biso   1.000  H 
  H417     1.0000 0.26001  0.81353  0.72612  Biso   1.000  H 
  H418     1.0000 0.13225  0.80041  0.75941  Biso   1.000  H 
  H419     1.0000 0.16747  0.74094  0.70749  Biso   1.000  H 
  H420     1.0000 0.09449  0.85856  0.68549  Biso   1.000  H 
  B343     1.0000 0.00000  0.34640  0.34640  Biso   1.000  B 
  B344     1.0000 0.00000  0.40471  0.32954  Biso   1.000  B 
  B345     1.0000 0.00000  0.32954  0.40471  Biso   1.000  B 
  B346     1.0000 0.00000  0.29500  0.29500  Biso   1.000  B 
  B347     1.0000 0.00000  0.23249  0.31563  Biso   1.000  B 
  N43      1.0000 0.96334  0.21375  0.37680  Biso   1.000  N 
  B348     1.0000 0.00000  0.13051  0.27872  Biso   1.000  B 
  B349     1.0000 0.00000  0.18442  0.26751  Biso   1.000  B 
  B350     1.0000 0.00000  0.20500  0.20500  Biso   1.000  B 
  B351     1.0000 0.00000  0.26751  0.18442  Biso   1.000  B 
  B352     1.0000 0.00000  0.31563  0.23249  Biso   1.000  B 
  B353     1.0000 0.00000  0.36954  0.22128  Biso   1.000  B 
  N44      1.0000 0.05576  0.27932  0.13413  Biso   1.000  N 
  B354     1.0000 0.00000  0.17046  0.09530  Biso   1.000  B 
  B355     1.0000 0.00000  0.15360  0.15360  Biso   1.000  B 
  B356     1.0000 0.00000  0.09529  0.17046  Biso   1.000  B 
  H421     1.0000 0.98293  0.17151  0.39069  Biso   1.000  H 
  C211     1.0000 0.89785  0.19302  0.35422  Biso   1.000  C 
  H422     1.0000 0.89572  0.17665  0.30361  Biso   1.000  H 
  C212     1.0000 0.85412  0.24675  0.36330  Biso   1.000  C 
  C213     1.0000 0.85965  0.14136  0.38954  Biso   1.000  C 
  C214     1.0000 0.79016  0.14683  0.36514  Biso   1.000  C 
  H423     1.0000 0.74734  0.12925  0.39153  Biso   1.000  H 
  H424     1.0000 0.78876  0.12535  0.31713  Biso   1.000  H 
  C215     1.0000 0.78383  0.21674  0.35614  Biso   1.000  C 
  H425     1.0000 0.86355  0.27690  0.32612  Biso   1.000  H 
  H426     1.0000 0.86480  0.27539  0.40539  Biso   1.000  H 
  H427     1.0000 0.75035  0.23451  0.39134  Biso   1.000  H 
  H428     1.0000 0.76241  0.22722  0.30878  Biso   1.000  H 
  H429     1.0000 0.86257  0.14407  0.43829  Biso   1.000  H 
  H430     1.0000 0.87828  0.09994  0.37826  Biso   1.000  H 
  C216     1.0000 0.11101  0.31414  0.16260  Biso   1.000  C 
  H431     1.0000 0.07872  0.23785  0.11884  Biso   1.000  H 
  C217     1.0000 0.16416  0.32547  0.11662  Biso   1.000  C 
  H432     1.0000 0.18208  0.27629  0.10776  Biso   1.000  H 
  C218     1.0000 0.21373  0.36413  0.15237  Biso   1.000  C 
  H433     1.0000 0.14010  0.35216  0.07663  Biso   1.000  H 
  C219     1.0000 0.20850  0.33838  0.22258  Biso   1.000  C 
  H434     1.0000 0.26285  0.37010  0.13143  Biso   1.000  H 
  H435     1.0000 0.18872  0.40772  0.14656  Biso   1.000  H 
  C220     1.0000 0.14739  0.29013  0.21982  Biso   1.000  C 
  H436     1.0000 0.20352  0.38039  0.25591  Biso   1.000  H 
  H437     1.0000 0.25081  0.31479  0.23589  Biso   1.000  H 
  H438     1.0000 0.12188  0.29978  0.26181  Biso   1.000  H 
  H439     1.0000 0.15734  0.24062  0.21360  Biso   1.000  H 
  H440     1.0000 0.09510  0.35983  0.18453  Biso   1.000  H 
  B357     1.0000 0.50000  0.84640  0.34640  Biso   1.000  B 
  B358     1.0000 0.50000  0.90471  0.32954  Biso   1.000  B 
  B359     1.0000 0.50000  0.82954  0.40471  Biso   1.000  B 
  B360     1.0000 0.50000  0.79500  0.29500  Biso   1.000  B 
  B361     1.0000 0.50000  0.73249  0.31563  Biso   1.000  B 
  N45      1.0000 0.46161  0.71285  0.37717  Biso   1.000  N 
  B362     1.0000 0.50000  0.63051  0.27872  Biso   1.000  B 
  B363     1.0000 0.50000  0.68442  0.26751  Biso   1.000  B 
  B364     1.0000 0.50000  0.70500  0.20500  Biso   1.000  B 
  B365     1.0000 0.50000  0.76751  0.18442  Biso   1.000  B 
  B366     1.0000 0.50000  0.81563  0.23249  Biso   1.000  B 
  B367     1.0000 0.50000  0.86954  0.22128  Biso   1.000  B 
  N46      1.0000 0.55404  0.77751  0.13318  Biso   1.000  N 
  B368     1.0000 0.50000  0.67046  0.09530  Biso   1.000  B 
  B369     1.0000 0.50000  0.65360  0.15360  Biso   1.000  B 
  B370     1.0000 0.50000  0.59529  0.17046  Biso   1.000  B 
  H441     1.0000 0.48055  0.66870  0.39429  Biso   1.000  H 
  C221     1.0000 0.39519  0.69315  0.35435  Biso   1.000  C 
  H442     1.0000 0.39269  0.67856  0.30393  Biso   1.000  H 
  C222     1.0000 0.35166  0.74553  0.36226  Biso   1.000  C 
  C223     1.0000 0.35603  0.64286  0.38717  Biso   1.000  C 
  C224     1.0000 0.28617  0.64660  0.35922  Biso   1.000  C 
  H443     1.0000 0.24863  0.62681  0.38788  Biso   1.000  H 
  H444     1.0000 0.28657  0.62507  0.30926  Biso   1.000  H 
  C225     1.0000 0.28353  0.71662  0.35396  Biso   1.000  C 
  H445     1.0000 0.36840  0.77619  0.32556  Biso   1.000  H 
  H446     1.0000 0.36196  0.76875  0.40651  Biso   1.000  H 
  H447     1.0000 0.25138  0.73248  0.39098  Biso   1.000  H 
  H448     1.0000 0.25840  0.72887  0.31017  Biso   1.000  H 
  H449     1.0000 0.36034  0.64120  0.43963  Biso   1.000  H 
  H450     1.0000 0.37099  0.59967  0.37161  Biso   1.000  H 
  C226     1.0000 0.60800  0.81244  0.16224  Biso   1.000  C 
  H451     1.0000 0.57836  0.73399  0.12307  Biso   1.000  H 
  C227     1.0000 0.65868  0.82564  0.11688  Biso   1.000  C 
  H452     1.0000 0.67317  0.77504  0.10543  Biso   1.000  H 
  C228     1.0000 0.71164  0.85544  0.15433  Biso   1.000  C 
  H453     1.0000 0.64194  0.85431  0.07460  Biso   1.000  H 
  C229     1.0000 0.70582  0.82521  0.22081  Biso   1.000  C 
  H454     1.0000 0.75983  0.85254  0.13093  Biso   1.000  H 
  H455     1.0000 0.69632  0.90423  0.15360  Biso   1.000  H 
  C230     1.0000 0.64643  0.78086  0.21632  Biso   1.000  C 
  H456     1.0000 0.69755  0.86144  0.25585  Biso   1.000  H 
  H457     1.0000 0.75085  0.80598  0.23532  Biso   1.000  H 
  H458     1.0000 0.61726  0.78833  0.25933  Biso   1.000  H 
  H459     1.0000 0.65597  0.72897  0.20292  Biso   1.000  H 
  H460     1.0000 0.59348  0.85921  0.17899  Biso   1.000  H 
  B371     1.0000 0.50000  0.34640  0.84640  Biso   1.000  B 
  B372     1.0000 0.50000  0.40471  0.82954  Biso   1.000  B 
  B373     1.0000 0.50000  0.32954  0.90471  Biso   1.000  B 
  B374     1.0000 0.50000  0.29500  0.79500  Biso   1.000  B 
  B375     1.0000 0.50000  0.23249  0.81563  Biso   1.000  B 
  N47      1.0000 0.46015  0.21194  0.87429  Biso   1.000  N 
  B376     1.0000 0.50000  0.13051  0.77872  Biso   1.000  B 
  B377     1.0000 0.50000  0.18442  0.76752  Biso   1.000  B 
  B378     1.0000 0.50000  0.20500  0.70501  Biso   1.000  B 
  B379     1.0000 0.50000  0.26751  0.68442  Biso   1.000  B 
  B380     1.0000 0.50000  0.31563  0.73249  Biso   1.000  B 
  B381     1.0000 0.50000  0.36954  0.72128  Biso   1.000  B 
  N48      1.0000 0.55699  0.27887  0.63732  Biso   1.000  N 
  B382     1.0000 0.50000  0.17046  0.59530  Biso   1.000  B 
  B383     1.0000 0.50000  0.15360  0.65361  Biso   1.000  B 
  B384     1.0000 0.50000  0.09529  0.67047  Biso   1.000  B 
  H461     1.0000 0.47476  0.16468  0.88423  Biso   1.000  H 
  C231     1.0000 0.39613  0.19260  0.85086  Biso   1.000  C 
  H462     1.0000 0.39129  0.18077  0.79783  Biso   1.000  H 
  C232     1.0000 0.35002  0.24420  0.86219  Biso   1.000  C 
  C233     1.0000 0.35930  0.14108  0.88456  Biso   1.000  C 
  C234     1.0000 0.29040  0.14555  0.86011  Biso   1.000  C 
  H463     1.0000 0.25004  0.12342  0.88770  Biso   1.000  H 
  H464     1.0000 0.28708  0.12566  0.80973  Biso   1.000  H 
  C235     1.0000 0.28070  0.21429  0.85302  Biso   1.000  C 
  H465     1.0000 0.36077  0.27429  0.82473  Biso   1.000  H 
  H466     1.0000 0.36099  0.27072  0.90465  Biso   1.000  H 
  H467     1.0000 0.24600  0.22984  0.88858  Biso   1.000  H 
  H468     1.0000 0.26076  0.22481  0.80525  Biso   1.000  H 
  H469     1.0000 0.36662  0.14241  0.93573  Biso   1.000  H 
  H470     1.0000 0.37053  0.09685  0.87079  Biso   1.000  H 
  C236     1.0000 0.60713  0.32218  0.66267  Biso   1.000  C 
  H471     1.0000 0.58116  0.23580  0.62790  Biso   1.000  H 
  C237     1.0000 0.66042  0.32725  0.61553  Biso   1.000  C 
  H472     1.0000 0.67509  0.27717  0.60833  Biso   1.000  H 
  C238     1.0000 0.71747  0.35599  0.64704  Biso   1.000  C 
  H473     1.0000 0.64266  0.35254  0.57470  Biso   1.000  H 
  C239     1.0000 0.70890  0.33530  0.71688  Biso   1.000  C 
  H474     1.0000 0.76703  0.35442  0.62591  Biso   1.000  H 
  H475     1.0000 0.70252  0.40455  0.64108  Biso   1.000  H 
  C240     1.0000 0.64569  0.29996  0.72218  Biso   1.000  C 
  H476     1.0000 0.70509  0.37604  0.75044  Biso   1.000  H 
  H477     1.0000 0.74798  0.31010  0.73209  Biso   1.000  H 
  H478     1.0000 0.62136  0.31254  0.76739  Biso   1.000  H 
  H479     1.0000 0.65264  0.24682  0.72182  Biso   1.000  H 
  H480     1.0000 0.58614  0.36748  0.66265  Biso   1.000  H 
