data_image0
_cell_length_a       26.896
_cell_length_b       26.896
_cell_length_c       26.896
_cell_angle_alpha    90
_cell_angle_beta     90
_cell_angle_gamma    90

_symmetry_space_group_name_H-M    "P 1"
_symmetry_int_tables_number       1

loop_
  _symmetry_equiv_pos_as_xyz
  'x, y, z'

loop_
  _atom_site_label
  _atom_site_occupancy
  _atom_site_fract_x
  _atom_site_fract_y
  _atom_site_fract_z
  _atom_site_thermal_displace_type
  _atom_site_B_iso_or_equiv
  _atom_site_type_symbol
  B1       1.0000 0.09204  0.00000  0.00000  Biso   1.000  B 
  B2       1.0000 0.90796  0.00000  0.00000  Biso   1.000  B 
  B3       1.0000 0.00000  0.09204  0.00000  Biso   1.000  B 
  B4       1.0000 0.00000  0.90796  0.00000  Biso   1.000  B 
  B5       1.0000 0.00000  0.00000  0.09204  Biso   1.000  B 
  B6       1.0000 0.00000  0.00000  0.90796  Biso   1.000  B 
  B7       1.0000 0.09204  0.50000  0.50000  Biso   1.000  B 
  B8       1.0000 0.90796  0.50000  0.50000  Biso   1.000  B 
  B9       1.0000 0.00000  0.59204  0.50000  Biso   1.000  B 
  B10      1.0000 0.00000  0.40796  0.50000  Biso   1.000  B 
  B11      1.0000 0.00000  0.50000  0.59204  Biso   1.000  B 
  B12      1.0000 0.00000  0.50000  0.40796  Biso   1.000  B 
  B13      1.0000 0.59204  0.00000  0.50000  Biso   1.000  B 
  B14      1.0000 0.40796  0.00000  0.50000  Biso   1.000  B 
  B15      1.0000 0.50000  0.09204  0.50000  Biso   1.000  B 
  B16      1.0000 0.50000  0.90796  0.50000  Biso   1.000  B 
  B17      1.0000 0.50000  0.00000  0.59204  Biso   1.000  B 
  B18      1.0000 0.50000  0.00000  0.40796  Biso   1.000  B 
  B19      1.0000 0.59204  0.50000  0.00000  Biso   1.000  B 
  B20      1.0000 0.40796  0.50000  0.00000  Biso   1.000  B 
  B21      1.0000 0.50000  0.59204  0.00000  Biso   1.000  B 
  B22      1.0000 0.50000  0.40796  0.00000  Biso   1.000  B 
  B23      1.0000 0.50000  0.50000  0.09204  Biso   1.000  B 
  B24      1.0000 0.50000  0.50000  0.90796  Biso   1.000  B 
  B25      1.0000 0.04540  0.04540  0.04540  Biso   1.000  B 
  B26      1.0000 0.95460  0.95460  0.04540  Biso   1.000  B 
  B27      1.0000 0.95460  0.04540  0.95460  Biso   1.000  B 
  B28      1.0000 0.04540  0.95460  0.95460  Biso   1.000  B 
  B29      1.0000 0.04540  0.04540  0.95460  Biso   1.000  B 
  B30      1.0000 0.95460  0.95460  0.95460  Biso   1.000  B 
  B31      1.0000 0.04540  0.95460  0.04540  Biso   1.000  B 
  B32      1.0000 0.95460  0.04540  0.04540  Biso   1.000  B 
  B33      1.0000 0.04540  0.54540  0.54540  Biso   1.000  B 
  B34      1.0000 0.95460  0.45460  0.54540  Biso   1.000  B 
  B35      1.0000 0.95460  0.54540  0.45460  Biso   1.000  B 
  B36      1.0000 0.04540  0.45460  0.45460  Biso   1.000  B 
  B37      1.0000 0.04540  0.54540  0.45460  Biso   1.000  B 
  B38      1.0000 0.95460  0.45460  0.45460  Biso   1.000  B 
  B39      1.0000 0.04540  0.45460  0.54540  Biso   1.000  B 
  B40      1.0000 0.95460  0.54540  0.54540  Biso   1.000  B 
  B41      1.0000 0.54540  0.04540  0.54540  Biso   1.000  B 
  B42      1.0000 0.45460  0.95460  0.54540  Biso   1.000  B 
  B43      1.0000 0.45460  0.04540  0.45460  Biso   1.000  B 
  B44      1.0000 0.54540  0.95460  0.45460  Biso   1.000  B 
  B45      1.0000 0.54540  0.04540  0.45460  Biso   1.000  B 
  B46      1.0000 0.45460  0.95460  0.45460  Biso   1.000  B 
  B47      1.0000 0.54540  0.95460  0.54540  Biso   1.000  B 
  B48      1.0000 0.45460  0.04540  0.54540  Biso   1.000  B 
  B49      1.0000 0.54540  0.54540  0.04540  Biso   1.000  B 
  B50      1.0000 0.45460  0.45460  0.04540  Biso   1.000  B 
  B51      1.0000 0.45460  0.54540  0.95460  Biso   1.000  B 
  B52      1.0000 0.54540  0.45460  0.95460  Biso   1.000  B 
  B53      1.0000 0.54540  0.54540  0.95460  Biso   1.000  B 
  B54      1.0000 0.45460  0.45460  0.95460  Biso   1.000  B 
  B55      1.0000 0.54540  0.45460  0.04540  Biso   1.000  B 
  B56      1.0000 0.45460  0.54540  0.04540  Biso   1.000  B 
  B57      1.0000 0.13260  0.00000  0.07190  Biso   1.000  B 
  B58      1.0000 0.11720  0.00000  0.11720  Biso   1.000  B 
  B59      1.0000 0.07190  0.00000  0.13260  Biso   1.000  B 
  B60      1.0000 0.15650  0.00000  0.15650  Biso   1.000  B 
  B61      1.0000 0.20580  0.00000  0.14470  Biso   1.000  B 
  B62      1.0000 0.14470  0.00000  0.20580  Biso   1.000  B 
  B63      1.0000 0.24200  0.00000  0.17950  Biso   1.000  B 
  B64      1.0000 0.21490  0.00000  0.11140  Biso   1.000  B 
  B65      1.0000 0.17950  0.00000  0.24200  Biso   1.000  B 
  B66      1.0000 0.11140  0.00000  0.21490  Biso   1.000  B 
  B67      1.0000 0.23070  0.00000  0.23070  Biso   1.000  B 
  B68      1.0000 0.26930  0.00000  0.26930  Biso   1.000  B 
  B69      1.0000 0.27510  0.00000  0.16950  Biso   1.000  B 
  B70      1.0000 0.32050  0.00000  0.25800  Biso   1.000  B 
  B71      1.0000 0.16950  0.00000  0.27510  Biso   1.000  B 
  B72      1.0000 0.25800  0.00000  0.32050  Biso   1.000  B 
  B73      1.0000 0.35530  0.00000  0.29420  Biso   1.000  B 
  N1       1.0000 0.33685  0.02823  0.21082  Biso   1.000  N 
  B74      1.0000 0.29420  0.00000  0.35530  Biso   1.000  B 
  B75      1.0000 0.22490  0.00000  0.33050  Biso   1.000  B 
  B76      1.0000 0.34350  0.00000  0.34350  Biso   1.000  B 
  B77      1.0000 0.38280  0.00000  0.38280  Biso   1.000  B 
  B78      1.0000 0.38860  0.00000  0.28510  Biso   1.000  B 
  B79      1.0000 0.28510  0.00000  0.38860  Biso   1.000  B 
  B80      1.0000 0.42810  0.00000  0.36740  Biso   1.000  B 
  B81      1.0000 0.36740  0.00000  0.42810  Biso   1.000  B 
  H1       1.0000 0.34808  0.06367  0.22305  Biso   1.000  H 
  C1       1.0000 0.37640  0.00647  0.17966  Biso   1.000  C 
  C2       1.0000 0.37924  0.03402  0.12733  Biso   1.000  C 
  C3       1.0000 0.42842  0.01841  0.10308  Biso   1.000  C 
  C4       1.0000 0.37884  0.09138  0.12849  Biso   1.000  C 
  C5       1.0000 0.33747  0.01526  0.09176  Biso   1.000  C 
  H2       1.0000 0.40698  0.10645  0.15520  Biso   1.000  H 
  H3       1.0000 0.34111  0.10452  0.13894  Biso   1.000  H 
  H4       1.0000 0.38910  0.10813  0.09305  Biso   1.000  H 
  H5       1.0000 0.46058  0.03777  0.11886  Biso   1.000  H 
  H6       1.0000 0.42689  0.02780  0.06245  Biso   1.000  H 
  H7       1.0000 0.43586  0.98020  0.10560  Biso   1.000  H 
  H8       1.0000 0.30226  0.03124  0.10393  Biso   1.000  H 
  H9       1.0000 0.33115  0.97483  0.09317  Biso   1.000  H 
  H10      1.0000 0.34573  0.02924  0.05358  Biso   1.000  H 
  H11      1.0000 0.36907  0.96627  0.17449  Biso   1.000  H 
  H12      1.0000 0.41408  0.01062  0.19830  Biso   1.000  H 
  B82      1.0000 0.86740  0.00000  0.07190  Biso   1.000  B 
  B83      1.0000 0.88280  0.00000  0.11720  Biso   1.000  B 
  B84      1.0000 0.92810  0.00000  0.13260  Biso   1.000  B 
  B85      1.0000 0.84350  0.00000  0.15650  Biso   1.000  B 
  B86      1.0000 0.79420  0.00000  0.14470  Biso   1.000  B 
  B87      1.0000 0.85530  0.00000  0.20580  Biso   1.000  B 
  B88      1.0000 0.75800  0.00000  0.17950  Biso   1.000  B 
  B89      1.0000 0.78510  0.00000  0.11140  Biso   1.000  B 
  B90      1.0000 0.82050  0.00000  0.24200  Biso   1.000  B 
  B91      1.0000 0.88860  0.00000  0.21490  Biso   1.000  B 
  B92      1.0000 0.76930  0.00000  0.23070  Biso   1.000  B 
  B93      1.0000 0.73070  0.00000  0.26930  Biso   1.000  B 
  B94      1.0000 0.72490  0.00000  0.16950  Biso   1.000  B 
  B95      1.0000 0.67950  0.00000  0.25800  Biso   1.000  B 
  B96      1.0000 0.83050  0.00000  0.27510  Biso   1.000  B 
  B97      1.0000 0.74200  0.00000  0.32050  Biso   1.000  B 
  B98      1.0000 0.64470  0.00000  0.29420  Biso   1.000  B 
  N2       1.0000 0.66315  0.97177  0.21082  Biso   1.000  N 
  B99      1.0000 0.70580  0.00000  0.35530  Biso   1.000  B 
  B100     1.0000 0.77510  0.00000  0.33050  Biso   1.000  B 
  B101     1.0000 0.65650  0.00000  0.34350  Biso   1.000  B 
  B102     1.0000 0.61720  0.00000  0.38280  Biso   1.000  B 
  B103     1.0000 0.61140  0.00000  0.28510  Biso   1.000  B 
  B104     1.0000 0.71490  0.00000  0.38860  Biso   1.000  B 
  B105     1.0000 0.57190  0.00000  0.36740  Biso   1.000  B 
  B106     1.0000 0.63260  0.00000  0.42810  Biso   1.000  B 
  H13      1.0000 0.65191  0.93633  0.22305  Biso   1.000  H 
  C6       1.0000 0.62360  0.99353  0.17966  Biso   1.000  C 
  C7       1.0000 0.62076  0.96598  0.12733  Biso   1.000  C 
  C8       1.0000 0.57158  0.98159  0.10308  Biso   1.000  C 
  C9       1.0000 0.62116  0.90862  0.12849  Biso   1.000  C 
  C10      1.0000 0.66253  0.98474  0.09176  Biso   1.000  C 
  H14      1.0000 0.59302  0.89355  0.15520  Biso   1.000  H 
  H15      1.0000 0.65889  0.89548  0.13894  Biso   1.000  H 
  H16      1.0000 0.61090  0.89188  0.09305  Biso   1.000  H 
  H17      1.0000 0.53942  0.96223  0.11886  Biso   1.000  H 
  H18      1.0000 0.57311  0.97220  0.06245  Biso   1.000  H 
  H19      1.0000 0.56414  0.01980  0.10560  Biso   1.000  H 
  H20      1.0000 0.69774  0.96876  0.10393  Biso   1.000  H 
  H21      1.0000 0.66885  0.02517  0.09317  Biso   1.000  H 
  H22      1.0000 0.65427  0.97076  0.05358  Biso   1.000  H 
  H23      1.0000 0.63093  0.03373  0.17449  Biso   1.000  H 
  H24      1.0000 0.58592  0.98939  0.19830  Biso   1.000  H 
  B107     1.0000 0.86740  0.00000  0.92810  Biso   1.000  B 
  B108     1.0000 0.88280  0.00000  0.88280  Biso   1.000  B 
  B109     1.0000 0.92810  0.00000  0.86740  Biso   1.000  B 
  B110     1.0000 0.84350  0.00000  0.84350  Biso   1.000  B 
  B111     1.0000 0.79420  0.00000  0.85530  Biso   1.000  B 
  B112     1.0000 0.85530  0.00000  0.79420  Biso   1.000  B 
  B113     1.0000 0.75800  0.00000  0.82050  Biso   1.000  B 
  B114     1.0000 0.78510  0.00000  0.88860  Biso   1.000  B 
  B115     1.0000 0.82050  0.00000  0.75800  Biso   1.000  B 
  B116     1.0000 0.88860  0.00000  0.78510  Biso   1.000  B 
  B117     1.0000 0.76930  0.00000  0.76930  Biso   1.000  B 
  B118     1.0000 0.73070  0.00000  0.73070  Biso   1.000  B 
  B119     1.0000 0.72490  0.00000  0.83050  Biso   1.000  B 
  B120     1.0000 0.67950  0.00000  0.74200  Biso   1.000  B 
  B121     1.0000 0.83050  0.00000  0.72490  Biso   1.000  B 
  B122     1.0000 0.74200  0.00000  0.67950  Biso   1.000  B 
  B123     1.0000 0.64470  0.00000  0.70580  Biso   1.000  B 
  N3       1.0000 0.66315  0.02823  0.78918  Biso   1.000  N 
  B124     1.0000 0.70580  0.00000  0.64470  Biso   1.000  B 
  B125     1.0000 0.77510  0.00000  0.66950  Biso   1.000  B 
  B126     1.0000 0.65650  0.00000  0.65650  Biso   1.000  B 
  B127     1.0000 0.61720  0.00000  0.61720  Biso   1.000  B 
  B128     1.0000 0.61140  0.00000  0.71490  Biso   1.000  B 
  B129     1.0000 0.71490  0.00000  0.61140  Biso   1.000  B 
  B130     1.0000 0.57190  0.00000  0.63260  Biso   1.000  B 
  B131     1.0000 0.63260  0.00000  0.57190  Biso   1.000  B 
  H25      1.0000 0.65191  0.06367  0.77695  Biso   1.000  H 
  C11      1.0000 0.62360  0.00647  0.82033  Biso   1.000  C 
  C12      1.0000 0.62076  0.03402  0.87267  Biso   1.000  C 
  C13      1.0000 0.57158  0.01841  0.89692  Biso   1.000  C 
  C14      1.0000 0.62116  0.09138  0.87151  Biso   1.000  C 
  C15      1.0000 0.66253  0.01526  0.90824  Biso   1.000  C 
  H26      1.0000 0.59302  0.10645  0.84479  Biso   1.000  H 
  H27      1.0000 0.65889  0.10452  0.86106  Biso   1.000  H 
  H28      1.0000 0.61090  0.10813  0.90695  Biso   1.000  H 
  H29      1.0000 0.53942  0.03777  0.88114  Biso   1.000  H 
  H30      1.0000 0.57311  0.02780  0.93755  Biso   1.000  H 
  H31      1.0000 0.56414  0.98020  0.89440  Biso   1.000  H 
  H32      1.0000 0.69774  0.03124  0.89607  Biso   1.000  H 
  H33      1.0000 0.66885  0.97483  0.90683  Biso   1.000  H 
  H34      1.0000 0.65427  0.02924  0.94642  Biso   1.000  H 
  H35      1.0000 0.63093  0.96627  0.82551  Biso   1.000  H 
  H36      1.0000 0.58592  0.01062  0.80170  Biso   1.000  H 
  B132     1.0000 0.13260  0.00000  0.92810  Biso   1.000  B 
  B133     1.0000 0.11720  0.00000  0.88280  Biso   1.000  B 
  B134     1.0000 0.07190  0.00000  0.86740  Biso   1.000  B 
  B135     1.0000 0.15650  0.00000  0.84350  Biso   1.000  B 
  B136     1.0000 0.20580  0.00000  0.85530  Biso   1.000  B 
  B137     1.0000 0.14470  0.00000  0.79420  Biso   1.000  B 
  B138     1.0000 0.24200  0.00000  0.82050  Biso   1.000  B 
  B139     1.0000 0.21490  0.00000  0.88860  Biso   1.000  B 
  B140     1.0000 0.17950  0.00000  0.75800  Biso   1.000  B 
  B141     1.0000 0.11140  0.00000  0.78510  Biso   1.000  B 
  B142     1.0000 0.23070  0.00000  0.76930  Biso   1.000  B 
  B143     1.0000 0.26930  0.00000  0.73070  Biso   1.000  B 
  B144     1.0000 0.27510  0.00000  0.83050  Biso   1.000  B 
  B145     1.0000 0.32050  0.00000  0.74200  Biso   1.000  B 
  B146     1.0000 0.16950  0.00000  0.72490  Biso   1.000  B 
  B147     1.0000 0.25800  0.00000  0.67950  Biso   1.000  B 
  B148     1.0000 0.35530  0.00000  0.70580  Biso   1.000  B 
  N4       1.0000 0.33685  0.97177  0.78918  Biso   1.000  N 
  B149     1.0000 0.29420  0.00000  0.64470  Biso   1.000  B 
  B150     1.0000 0.22490  0.00000  0.66950  Biso   1.000  B 
  B151     1.0000 0.34350  0.00000  0.65650  Biso   1.000  B 
  B152     1.0000 0.38280  0.00000  0.61720  Biso   1.000  B 
  B153     1.0000 0.38860  0.00000  0.71490  Biso   1.000  B 
  B154     1.0000 0.28510  0.00000  0.61140  Biso   1.000  B 
  B155     1.0000 0.42810  0.00000  0.63260  Biso   1.000  B 
  B156     1.0000 0.36740  0.00000  0.57190  Biso   1.000  B 
  H37      1.0000 0.34808  0.93633  0.77695  Biso   1.000  H 
  C16      1.0000 0.37640  0.99353  0.82033  Biso   1.000  C 
  C17      1.0000 0.37924  0.96598  0.87267  Biso   1.000  C 
  C18      1.0000 0.42842  0.98159  0.89692  Biso   1.000  C 
  C19      1.0000 0.37884  0.90862  0.87151  Biso   1.000  C 
  C20      1.0000 0.33747  0.98474  0.90824  Biso   1.000  C 
  H38      1.0000 0.40698  0.89355  0.84479  Biso   1.000  H 
  H39      1.0000 0.34111  0.89548  0.86106  Biso   1.000  H 
  H40      1.0000 0.38910  0.89188  0.90695  Biso   1.000  H 
  H41      1.0000 0.46058  0.96223  0.88114  Biso   1.000  H 
  H42      1.0000 0.42689  0.97220  0.93755  Biso   1.000  H 
  H43      1.0000 0.43586  0.01980  0.89440  Biso   1.000  H 
  H44      1.0000 0.30226  0.96876  0.89607  Biso   1.000  H 
  H45      1.0000 0.33115  0.02517  0.90683  Biso   1.000  H 
  H46      1.0000 0.34573  0.97076  0.94642  Biso   1.000  H 
  H47      1.0000 0.36907  0.03373  0.82551  Biso   1.000  H 
  H48      1.0000 0.41408  0.98939  0.80170  Biso   1.000  H 
  B157     1.0000 0.07190  0.13260  0.00000  Biso   1.000  B 
  B158     1.0000 0.11720  0.11720  0.00000  Biso   1.000  B 
  B159     1.0000 0.13260  0.07190  0.00000  Biso   1.000  B 
  B160     1.0000 0.15650  0.15650  0.00000  Biso   1.000  B 
  B161     1.0000 0.14470  0.20580  0.00000  Biso   1.000  B 
  B162     1.0000 0.20580  0.14470  0.00000  Biso   1.000  B 
  B163     1.0000 0.17950  0.24200  0.00000  Biso   1.000  B 
  B164     1.0000 0.11140  0.21490  0.00000  Biso   1.000  B 
  B165     1.0000 0.24200  0.17950  0.00000  Biso   1.000  B 
  B166     1.0000 0.21490  0.11140  0.00000  Biso   1.000  B 
  B167     1.0000 0.23070  0.23070  0.00000  Biso   1.000  B 
  B168     1.0000 0.26930  0.26930  0.00000  Biso   1.000  B 
  B169     1.0000 0.16950  0.27510  0.00000  Biso   1.000  B 
  B170     1.0000 0.25800  0.32050  0.00000  Biso   1.000  B 
  B171     1.0000 0.27510  0.16950  0.00000  Biso   1.000  B 
  B172     1.0000 0.32050  0.25800  0.00000  Biso   1.000  B 
  B173     1.0000 0.29420  0.35530  0.00000  Biso   1.000  B 
  N5       1.0000 0.20537  0.34082  0.98692  Biso   1.000  N 
  B174     1.0000 0.35530  0.29420  0.00000  Biso   1.000  B 
  B175     1.0000 0.33050  0.22490  0.00000  Biso   1.000  B 
  B176     1.0000 0.34350  0.34350  0.00000  Biso   1.000  B 
  B177     1.0000 0.38280  0.38280  0.00000  Biso   1.000  B 
  B178     1.0000 0.28510  0.38860  0.00000  Biso   1.000  B 
  B179     1.0000 0.38860  0.28510  0.00000  Biso   1.000  B 
  B180     1.0000 0.36740  0.42810  0.00000  Biso   1.000  B 
  B181     1.0000 0.42810  0.36740  0.00000  Biso   1.000  B 
  H49      1.0000 0.19880  0.37090  0.01051  Biso   1.000  H 
  C21      1.0000 0.19951  0.35703  0.93464  Biso   1.000  C 
  C22      1.0000 0.14439  0.36621  0.91750  Biso   1.000  C 
  C23      1.0000 0.14526  0.39507  0.86865  Biso   1.000  C 
  C24      1.0000 0.11548  0.39600  0.95686  Biso   1.000  C 
  C25      1.0000 0.11748  0.31691  0.90710  Biso   1.000  C 
  H50      1.0000 0.13205  0.43398  0.96246  Biso   1.000  H 
  H51      1.0000 0.11663  0.37598  0.99227  Biso   1.000  H 
  H52      1.0000 0.07599  0.40135  0.94546  Biso   1.000  H 
  H53      1.0000 0.16149  0.43202  0.87499  Biso   1.000  H 
  H54      1.0000 0.10764  0.39933  0.85285  Biso   1.000  H 
  H55      1.0000 0.16828  0.37479  0.84121  Biso   1.000  H 
  H56      1.0000 0.13724  0.29638  0.87768  Biso   1.000  H 
  H57      1.0000 0.07901  0.32469  0.89402  Biso   1.000  H 
  H58      1.0000 0.11455  0.29279  0.94045  Biso   1.000  H 
  H59      1.0000 0.21708  0.32920  0.90963  Biso   1.000  H 
  H60      1.0000 0.21983  0.39276  0.93055  Biso   1.000  H 
  B182     1.0000 0.07190  0.86740  0.00000  Biso   1.000  B 
  B183     1.0000 0.11720  0.88280  0.00000  Biso   1.000  B 
  B184     1.0000 0.13260  0.92810  0.00000  Biso   1.000  B 
  B185     1.0000 0.15650  0.84350  0.00000  Biso   1.000  B 
  B186     1.0000 0.14470  0.79420  0.00000  Biso   1.000  B 
  B187     1.0000 0.20580  0.85530  0.00000  Biso   1.000  B 
  B188     1.0000 0.17950  0.75800  0.00000  Biso   1.000  B 
  B189     1.0000 0.11140  0.78510  0.00000  Biso   1.000  B 
  B190     1.0000 0.24200  0.82050  0.00000  Biso   1.000  B 
  B191     1.0000 0.21490  0.88860  0.00000  Biso   1.000  B 
  B192     1.0000 0.23070  0.76930  0.00000  Biso   1.000  B 
  B193     1.0000 0.26930  0.73070  0.00000  Biso   1.000  B 
  B194     1.0000 0.16950  0.72490  0.00000  Biso   1.000  B 
  B195     1.0000 0.25800  0.67950  0.00000  Biso   1.000  B 
  B196     1.0000 0.27510  0.83050  0.00000  Biso   1.000  B 
  B197     1.0000 0.32050  0.74200  0.00000  Biso   1.000  B 
  B198     1.0000 0.29420  0.64470  0.00000  Biso   1.000  B 
  N6       1.0000 0.20537  0.65918  0.01308  Biso   1.000  N 
  B199     1.0000 0.35530  0.70580  0.00000  Biso   1.000  B 
  B200     1.0000 0.33050  0.77510  0.00000  Biso   1.000  B 
  B201     1.0000 0.34350  0.65650  0.00000  Biso   1.000  B 
  B202     1.0000 0.38280  0.61720  0.00000  Biso   1.000  B 
  B203     1.0000 0.28510  0.61140  0.00000  Biso   1.000  B 
  B204     1.0000 0.38860  0.71490  0.00000  Biso   1.000  B 
  B205     1.0000 0.36740  0.57190  0.00000  Biso   1.000  B 
  B206     1.0000 0.42810  0.63260  0.00000  Biso   1.000  B 
  H61      1.0000 0.19880  0.62910  0.98949  Biso   1.000  H 
  C26      1.0000 0.19951  0.64297  0.06536  Biso   1.000  C 
  C27      1.0000 0.14439  0.63379  0.08250  Biso   1.000  C 
  C28      1.0000 0.14526  0.60493  0.13135  Biso   1.000  C 
  C29      1.0000 0.11548  0.60400  0.04314  Biso   1.000  C 
  C30      1.0000 0.11748  0.68309  0.09290  Biso   1.000  C 
  H62      1.0000 0.13205  0.56602  0.03754  Biso   1.000  H 
  H63      1.0000 0.11663  0.62402  0.00773  Biso   1.000  H 
  H64      1.0000 0.07599  0.59865  0.05454  Biso   1.000  H 
  H65      1.0000 0.16149  0.56798  0.12501  Biso   1.000  H 
  H66      1.0000 0.10764  0.60067  0.14715  Biso   1.000  H 
  H67      1.0000 0.16828  0.62521  0.15879  Biso   1.000  H 
  H68      1.0000 0.13724  0.70362  0.12232  Biso   1.000  H 
  H69      1.0000 0.07901  0.67532  0.10598  Biso   1.000  H 
  H70      1.0000 0.11455  0.70721  0.05955  Biso   1.000  H 
  H71      1.0000 0.21708  0.67080  0.09038  Biso   1.000  H 
  H72      1.0000 0.21983  0.60724  0.06945  Biso   1.000  H 
  B207     1.0000 0.92810  0.86740  0.00000  Biso   1.000  B 
  B208     1.0000 0.88280  0.88280  0.00000  Biso   1.000  B 
  B209     1.0000 0.86740  0.92810  0.00000  Biso   1.000  B 
  B210     1.0000 0.84350  0.84350  0.00000  Biso   1.000  B 
  B211     1.0000 0.85530  0.79420  0.00000  Biso   1.000  B 
  B212     1.0000 0.79420  0.85530  0.00000  Biso   1.000  B 
  B213     1.0000 0.82050  0.75800  0.00000  Biso   1.000  B 
  B214     1.0000 0.88860  0.78510  0.00000  Biso   1.000  B 
  B215     1.0000 0.75800  0.82050  0.00000  Biso   1.000  B 
  B216     1.0000 0.78510  0.88860  0.00000  Biso   1.000  B 
  B217     1.0000 0.76930  0.76930  0.00000  Biso   1.000  B 
  B218     1.0000 0.73070  0.73070  0.00000  Biso   1.000  B 
  B219     1.0000 0.83050  0.72490  0.00000  Biso   1.000  B 
  B220     1.0000 0.74200  0.67950  0.00000  Biso   1.000  B 
  B221     1.0000 0.72490  0.83050  0.00000  Biso   1.000  B 
  B222     1.0000 0.67950  0.74200  0.00000  Biso   1.000  B 
  B223     1.0000 0.70580  0.64470  0.00000  Biso   1.000  B 
  N7       1.0000 0.79463  0.65918  0.98692  Biso   1.000  N 
  B224     1.0000 0.64470  0.70580  0.00000  Biso   1.000  B 
  B225     1.0000 0.66950  0.77510  0.00000  Biso   1.000  B 
  B226     1.0000 0.65650  0.65650  0.00000  Biso   1.000  B 
  B227     1.0000 0.61720  0.61720  0.00000  Biso   1.000  B 
  B228     1.0000 0.71490  0.61140  0.00000  Biso   1.000  B 
  B229     1.0000 0.61140  0.71490  0.00000  Biso   1.000  B 
  B230     1.0000 0.63260  0.57190  0.00000  Biso   1.000  B 
  B231     1.0000 0.57190  0.63260  0.00000  Biso   1.000  B 
  H73      1.0000 0.80120  0.62910  0.01051  Biso   1.000  H 
  C31      1.0000 0.80049  0.64297  0.93464  Biso   1.000  C 
  C32      1.0000 0.85561  0.63379  0.91750  Biso   1.000  C 
  C33      1.0000 0.85474  0.60493  0.86865  Biso   1.000  C 
  C34      1.0000 0.88452  0.60400  0.95686  Biso   1.000  C 
  C35      1.0000 0.88252  0.68309  0.90710  Biso   1.000  C 
  H74      1.0000 0.86795  0.56602  0.96246  Biso   1.000  H 
  H75      1.0000 0.88337  0.62402  0.99227  Biso   1.000  H 
  H76      1.0000 0.92401  0.59865  0.94546  Biso   1.000  H 
  H77      1.0000 0.83851  0.56798  0.87499  Biso   1.000  H 
  H78      1.0000 0.89236  0.60067  0.85285  Biso   1.000  H 
  H79      1.0000 0.83173  0.62521  0.84121  Biso   1.000  H 
  H80      1.0000 0.86276  0.70362  0.87768  Biso   1.000  H 
  H81      1.0000 0.92099  0.67532  0.89402  Biso   1.000  H 
  H82      1.0000 0.88545  0.70721  0.94045  Biso   1.000  H 
  H83      1.0000 0.78292  0.67080  0.90963  Biso   1.000  H 
  H84      1.0000 0.78017  0.60724  0.93055  Biso   1.000  H 
  B232     1.0000 0.92810  0.13260  0.00000  Biso   1.000  B 
  B233     1.0000 0.88280  0.11720  0.00000  Biso   1.000  B 
  B234     1.0000 0.86740  0.07190  0.00000  Biso   1.000  B 
  B235     1.0000 0.84350  0.15650  0.00000  Biso   1.000  B 
  B236     1.0000 0.85530  0.20580  0.00000  Biso   1.000  B 
  B237     1.0000 0.79420  0.14470  0.00000  Biso   1.000  B 
  B238     1.0000 0.82050  0.24200  0.00000  Biso   1.000  B 
  B239     1.0000 0.88860  0.21490  0.00000  Biso   1.000  B 
  B240     1.0000 0.75800  0.17950  0.00000  Biso   1.000  B 
  B241     1.0000 0.78510  0.11140  0.00000  Biso   1.000  B 
  B242     1.0000 0.76930  0.23070  0.00000  Biso   1.000  B 
  B243     1.0000 0.73070  0.26930  0.00000  Biso   1.000  B 
  B244     1.0000 0.83050  0.27510  0.00000  Biso   1.000  B 
  B245     1.0000 0.74200  0.32050  0.00000  Biso   1.000  B 
  B246     1.0000 0.72490  0.16950  0.00000  Biso   1.000  B 
  B247     1.0000 0.67950  0.25800  0.00000  Biso   1.000  B 
  B248     1.0000 0.70580  0.35530  0.00000  Biso   1.000  B 
  N8       1.0000 0.79463  0.34082  0.01308  Biso   1.000  N 
  B249     1.0000 0.64470  0.29420  0.00000  Biso   1.000  B 
  B250     1.0000 0.66950  0.22490  0.00000  Biso   1.000  B 
  B251     1.0000 0.65650  0.34350  0.00000  Biso   1.000  B 
  B252     1.0000 0.61720  0.38280  0.00000  Biso   1.000  B 
  B253     1.0000 0.71490  0.38860  0.00000  Biso   1.000  B 
  B254     1.0000 0.61140  0.28510  0.00000  Biso   1.000  B 
  B255     1.0000 0.63260  0.42810  0.00000  Biso   1.000  B 
  B256     1.0000 0.57190  0.36740  0.00000  Biso   1.000  B 
  H85      1.0000 0.80120  0.37090  0.98949  Biso   1.000  H 
  C36      1.0000 0.80049  0.35703  0.06536  Biso   1.000  C 
  C37      1.0000 0.85561  0.36621  0.08250  Biso   1.000  C 
  C38      1.0000 0.85474  0.39507  0.13135  Biso   1.000  C 
  C39      1.0000 0.88452  0.39600  0.04314  Biso   1.000  C 
  C40      1.0000 0.88252  0.31691  0.09290  Biso   1.000  C 
  H86      1.0000 0.86795  0.43398  0.03754  Biso   1.000  H 
  H87      1.0000 0.88337  0.37598  0.00773  Biso   1.000  H 
  H88      1.0000 0.92401  0.40135  0.05454  Biso   1.000  H 
  H89      1.0000 0.83851  0.43202  0.12501  Biso   1.000  H 
  H90      1.0000 0.89236  0.39933  0.14715  Biso   1.000  H 
  H91      1.0000 0.83173  0.37479  0.15879  Biso   1.000  H 
  H92      1.0000 0.86276  0.29638  0.12232  Biso   1.000  H 
  H93      1.0000 0.92099  0.32469  0.10598  Biso   1.000  H 
  H94      1.0000 0.88545  0.29279  0.05955  Biso   1.000  H 
  H95      1.0000 0.78292  0.32920  0.09038  Biso   1.000  H 
  H96      1.0000 0.78017  0.39276  0.06945  Biso   1.000  H 
  B257     1.0000 0.00000  0.07190  0.13260  Biso   1.000  B 
  B258     1.0000 0.00000  0.11720  0.11720  Biso   1.000  B 
  B259     1.0000 0.00000  0.13260  0.07190  Biso   1.000  B 
  B260     1.0000 0.00000  0.15650  0.15650  Biso   1.000  B 
  B261     1.0000 0.00000  0.14470  0.20580  Biso   1.000  B 
  B262     1.0000 0.00000  0.20580  0.14470  Biso   1.000  B 
  B263     1.0000 0.00000  0.17950  0.24200  Biso   1.000  B 
  B264     1.0000 0.00000  0.11140  0.21490  Biso   1.000  B 
  B265     1.0000 0.00000  0.24200  0.17950  Biso   1.000  B 
  B266     1.0000 0.00000  0.21490  0.11140  Biso   1.000  B 
  B267     1.0000 0.00000  0.23070  0.23070  Biso   1.000  B 
  B268     1.0000 0.00000  0.26930  0.26930  Biso   1.000  B 
  B269     1.0000 0.00000  0.16950  0.27510  Biso   1.000  B 
  B270     1.0000 0.00000  0.25800  0.32050  Biso   1.000  B 
  B271     1.0000 0.00000  0.27510  0.16950  Biso   1.000  B 
  B272     1.0000 0.00000  0.32050  0.25800  Biso   1.000  B 
  B273     1.0000 0.00000  0.29420  0.35530  Biso   1.000  B 
  N9       1.0000 0.02818  0.21123  0.33697  Biso   1.000  N 
  B274     1.0000 0.00000  0.35530  0.29420  Biso   1.000  B 
  B275     1.0000 0.00000  0.33050  0.22490  Biso   1.000  B 
  B276     1.0000 0.00000  0.34350  0.34350  Biso   1.000  B 
  B277     1.0000 0.00000  0.38280  0.38280  Biso   1.000  B 
  B278     1.0000 0.00000  0.28510  0.38860  Biso   1.000  B 
  B279     1.0000 0.00000  0.38860  0.28510  Biso   1.000  B 
  B280     1.0000 0.00000  0.36740  0.42810  Biso   1.000  B 
  B281     1.0000 0.00000  0.42810  0.36740  Biso   1.000  B 
  H97      1.0000 0.06387  0.22331  0.34770  Biso   1.000  H 
  C41      1.0000 0.00745  0.18080  0.37754  Biso   1.000  C 
  C42      1.0000 0.03381  0.12771  0.37971  Biso   1.000  C 
  C43      1.0000 0.01827  0.10351  0.42890  Biso   1.000  C 
  C44      1.0000 0.09112  0.12812  0.37826  Biso   1.000  C 
  C45      1.0000 0.01375  0.09251  0.33851  Biso   1.000  C 
  H98      1.0000 0.10780  0.15330  0.40662  Biso   1.000  H 
  H99      1.0000 0.10395  0.13874  0.34067  Biso   1.000  H 
  H100     1.0000 0.10730  0.09153  0.38673  Biso   1.000  H 
  H101     1.0000 0.03794  0.11924  0.46072  Biso   1.000  H 
  H102     1.0000 0.02818  0.06282  0.42715  Biso   1.000  H 
  H103     1.0000 0.97979  0.10593  0.43661  Biso   1.000  H 
  H104     1.0000 0.03063  0.10406  0.30353  Biso   1.000  H 
  H105     1.0000 0.97366  0.09640  0.33187  Biso   1.000  H 
  H106     1.0000 0.02516  0.05341  0.34648  Biso   1.000  H 
  H107     1.0000 0.96693  0.17681  0.37182  Biso   1.000  H 
  H108     1.0000 0.01375  0.19925  0.41508  Biso   1.000  H 
  B282     1.0000 0.00000  0.07190  0.86740  Biso   1.000  B 
  B283     1.0000 0.00000  0.11720  0.88280  Biso   1.000  B 
  B284     1.0000 0.00000  0.13260  0.92810  Biso   1.000  B 
  B285     1.0000 0.00000  0.15650  0.84350  Biso   1.000  B 
  B286     1.0000 0.00000  0.14470  0.79420  Biso   1.000  B 
  B287     1.0000 0.00000  0.20580  0.85530  Biso   1.000  B 
  B288     1.0000 0.00000  0.17950  0.75800  Biso   1.000  B 
  B289     1.0000 0.00000  0.11140  0.78510  Biso   1.000  B 
  B290     1.0000 0.00000  0.24200  0.82050  Biso   1.000  B 
  B291     1.0000 0.00000  0.21490  0.88860  Biso   1.000  B 
  B292     1.0000 0.00000  0.23070  0.76930  Biso   1.000  B 
  B293     1.0000 0.00000  0.26930  0.73070  Biso   1.000  B 
  B294     1.0000 0.00000  0.16950  0.72490  Biso   1.000  B 
  B295     1.0000 0.00000  0.25800  0.67950  Biso   1.000  B 
  B296     1.0000 0.00000  0.27510  0.83050  Biso   1.000  B 
  B297     1.0000 0.00000  0.32050  0.74200  Biso   1.000  B 
  B298     1.0000 0.00000  0.29420  0.64470  Biso   1.000  B 
  N10      1.0000 0.97182  0.21123  0.66303  Biso   1.000  N 
  B299     1.0000 0.00000  0.35530  0.70580  Biso   1.000  B 
  B300     1.0000 0.00000  0.33050  0.77510  Biso   1.000  B 
  B301     1.0000 0.00000  0.34350  0.65650  Biso   1.000  B 
  B302     1.0000 0.00000  0.38280  0.61720  Biso   1.000  B 
  B303     1.0000 0.00000  0.28510  0.61140  Biso   1.000  B 
  B304     1.0000 0.00000  0.38860  0.71490  Biso   1.000  B 
  B305     1.0000 0.00000  0.36740  0.57190  Biso   1.000  B 
  B306     1.0000 0.00000  0.42810  0.63260  Biso   1.000  B 
  H109     1.0000 0.93613  0.22331  0.65230  Biso   1.000  H 
  C46      1.0000 0.99255  0.18080  0.62246  Biso   1.000  C 
  C47      1.0000 0.96619  0.12771  0.62029  Biso   1.000  C 
  C48      1.0000 0.98173  0.10351  0.57110  Biso   1.000  C 
  C49      1.0000 0.90888  0.12812  0.62174  Biso   1.000  C 
  C50      1.0000 0.98625  0.09251  0.66149  Biso   1.000  C 
  H110     1.0000 0.89220  0.15330  0.59338  Biso   1.000  H 
  H111     1.0000 0.89606  0.13874  0.65933  Biso   1.000  H 
  H112     1.0000 0.89270  0.09153  0.61327  Biso   1.000  H 
  H113     1.0000 0.96206  0.11924  0.53928  Biso   1.000  H 
  H114     1.0000 0.97182  0.06282  0.57285  Biso   1.000  H 
  H115     1.0000 0.02021  0.10593  0.56339  Biso   1.000  H 
  H116     1.0000 0.96937  0.10406  0.69647  Biso   1.000  H 
  H117     1.0000 0.02634  0.09640  0.66813  Biso   1.000  H 
  H118     1.0000 0.97484  0.05341  0.65352  Biso   1.000  H 
  H119     1.0000 0.03307  0.17681  0.62818  Biso   1.000  H 
  H120     1.0000 0.98625  0.19925  0.58492  Biso   1.000  H 
  B307     1.0000 0.00000  0.92810  0.86740  Biso   1.000  B 
  B308     1.0000 0.00000  0.88280  0.88280  Biso   1.000  B 
  B309     1.0000 0.00000  0.86740  0.92810  Biso   1.000  B 
  B310     1.0000 0.00000  0.84350  0.84350  Biso   1.000  B 
  B311     1.0000 0.00000  0.85530  0.79420  Biso   1.000  B 
  B312     1.0000 0.00000  0.79420  0.85530  Biso   1.000  B 
  B313     1.0000 0.00000  0.82050  0.75800  Biso   1.000  B 
  B314     1.0000 0.00000  0.88860  0.78510  Biso   1.000  B 
  B315     1.0000 0.00000  0.75800  0.82050  Biso   1.000  B 
  B316     1.0000 0.00000  0.78510  0.88860  Biso   1.000  B 
  B317     1.0000 0.00000  0.76930  0.76930  Biso   1.000  B 
  B318     1.0000 0.00000  0.73070  0.73070  Biso   1.000  B 
  B319     1.0000 0.00000  0.83050  0.72490  Biso   1.000  B 
  B320     1.0000 0.00000  0.74200  0.67950  Biso   1.000  B 
  B321     1.0000 0.00000  0.72490  0.83050  Biso   1.000  B 
  B322     1.0000 0.00000  0.67950  0.74200  Biso   1.000  B 
  B323     1.0000 0.00000  0.70580  0.64470  Biso   1.000  B 
  N11      1.0000 0.02818  0.78877  0.66303  Biso   1.000  N 
  B324     1.0000 0.00000  0.64470  0.70580  Biso   1.000  B 
  B325     1.0000 0.00000  0.66950  0.77510  Biso   1.000  B 
  B326     1.0000 0.00000  0.65650  0.65650  Biso   1.000  B 
  B327     1.0000 0.00000  0.61720  0.61720  Biso   1.000  B 
  B328     1.0000 0.00000  0.71490  0.61140  Biso   1.000  B 
  B329     1.0000 0.00000  0.61140  0.71490  Biso   1.000  B 
  B330     1.0000 0.00000  0.63260  0.57190  Biso   1.000  B 
  B331     1.0000 0.00000  0.57190  0.63260  Biso   1.000  B 
  H121     1.0000 0.06387  0.77669  0.65230  Biso   1.000  H 
  C51      1.0000 0.00745  0.81920  0.62246  Biso   1.000  C 
  C52      1.0000 0.03381  0.87229  0.62029  Biso   1.000  C 
  C53      1.0000 0.01827  0.89649  0.57110  Biso   1.000  C 
  C54      1.0000 0.09112  0.87188  0.62174  Biso   1.000  C 
  C55      1.0000 0.01375  0.90749  0.66149  Biso   1.000  C 
  H122     1.0000 0.10780  0.84670  0.59338  Biso   1.000  H 
  H123     1.0000 0.10395  0.86126  0.65933  Biso   1.000  H 
  H124     1.0000 0.10730  0.90847  0.61327  Biso   1.000  H 
  H125     1.0000 0.03794  0.88076  0.53928  Biso   1.000  H 
  H126     1.0000 0.02818  0.93718  0.57285  Biso   1.000  H 
  H127     1.0000 0.97979  0.89407  0.56339  Biso   1.000  H 
  H128     1.0000 0.03063  0.89594  0.69647  Biso   1.000  H 
  H129     1.0000 0.97366  0.90360  0.66813  Biso   1.000  H 
  H130     1.0000 0.02516  0.94659  0.65352  Biso   1.000  H 
  H131     1.0000 0.96693  0.82319  0.62818  Biso   1.000  H 
  H132     1.0000 0.01375  0.80075  0.58492  Biso   1.000  H 
  B332     1.0000 0.00000  0.92810  0.13260  Biso   1.000  B 
  B333     1.0000 0.00000  0.88280  0.11720  Biso   1.000  B 
  B334     1.0000 0.00000  0.86740  0.07190  Biso   1.000  B 
  B335     1.0000 0.00000  0.84350  0.15650  Biso   1.000  B 
  B336     1.0000 0.00000  0.85530  0.20580  Biso   1.000  B 
  B337     1.0000 0.00000  0.79420  0.14470  Biso   1.000  B 
  B338     1.0000 0.00000  0.82050  0.24200  Biso   1.000  B 
  B339     1.0000 0.00000  0.88860  0.21490  Biso   1.000  B 
  B340     1.0000 0.00000  0.75800  0.17950  Biso   1.000  B 
  B341     1.0000 0.00000  0.78510  0.11140  Biso   1.000  B 
  B342     1.0000 0.00000  0.76930  0.23070  Biso   1.000  B 
  B343     1.0000 0.00000  0.73070  0.26930  Biso   1.000  B 
  B344     1.0000 0.00000  0.83050  0.27510  Biso   1.000  B 
  B345     1.0000 0.00000  0.74200  0.32050  Biso   1.000  B 
  B346     1.0000 0.00000  0.72490  0.16950  Biso   1.000  B 
  B347     1.0000 0.00000  0.67950  0.25800  Biso   1.000  B 
  B348     1.0000 0.00000  0.70580  0.35530  Biso   1.000  B 
  N12      1.0000 0.97182  0.78877  0.33697  Biso   1.000  N 
  B349     1.0000 0.00000  0.64470  0.29420  Biso   1.000  B 
  B350     1.0000 0.00000  0.66950  0.22490  Biso   1.000  B 
  B351     1.0000 0.00000  0.65650  0.34350  Biso   1.000  B 
  B352     1.0000 0.00000  0.61720  0.38280  Biso   1.000  B 
  B353     1.0000 0.00000  0.71490  0.38860  Biso   1.000  B 
  B354     1.0000 0.00000  0.61140  0.28510  Biso   1.000  B 
  B355     1.0000 0.00000  0.63260  0.42810  Biso   1.000  B 
  B356     1.0000 0.00000  0.57190  0.36740  Biso   1.000  B 
  H133     1.0000 0.93613  0.77669  0.34770  Biso   1.000  H 
  C56      1.0000 0.99255  0.81920  0.37754  Biso   1.000  C 
  C57      1.0000 0.96619  0.87229  0.37971  Biso   1.000  C 
  C58      1.0000 0.98173  0.89649  0.42890  Biso   1.000  C 
  C59      1.0000 0.90888  0.87188  0.37826  Biso   1.000  C 
  C60      1.0000 0.98625  0.90749  0.33851  Biso   1.000  C 
  H134     1.0000 0.89220  0.84670  0.40662  Biso   1.000  H 
  H135     1.0000 0.89606  0.86126  0.34067  Biso   1.000  H 
  H136     1.0000 0.89270  0.90847  0.38673  Biso   1.000  H 
  H137     1.0000 0.96206  0.88076  0.46072  Biso   1.000  H 
  H138     1.0000 0.97182  0.93718  0.42715  Biso   1.000  H 
  H139     1.0000 0.02021  0.89407  0.43661  Biso   1.000  H 
  H140     1.0000 0.96937  0.89594  0.30353  Biso   1.000  H 
  H141     1.0000 0.02634  0.90360  0.33187  Biso   1.000  H 
  H142     1.0000 0.97484  0.94659  0.34648  Biso   1.000  H 
  H143     1.0000 0.03307  0.82319  0.37182  Biso   1.000  H 
  H144     1.0000 0.98625  0.80075  0.41508  Biso   1.000  H 
  B357     1.0000 0.13260  0.50000  0.57190  Biso   1.000  B 
  B358     1.0000 0.11720  0.50000  0.61720  Biso   1.000  B 
  B359     1.0000 0.07190  0.50000  0.63260  Biso   1.000  B 
  B360     1.0000 0.15650  0.50000  0.65650  Biso   1.000  B 
  B361     1.0000 0.20580  0.50000  0.64470  Biso   1.000  B 
  B362     1.0000 0.14470  0.50000  0.70580  Biso   1.000  B 
  B363     1.0000 0.24200  0.50000  0.67950  Biso   1.000  B 
  B364     1.0000 0.21490  0.50000  0.61140  Biso   1.000  B 
  B365     1.0000 0.17950  0.50000  0.74200  Biso   1.000  B 
  B366     1.0000 0.11140  0.50000  0.71490  Biso   1.000  B 
  B367     1.0000 0.23070  0.50000  0.73070  Biso   1.000  B 
  B368     1.0000 0.26930  0.50000  0.76930  Biso   1.000  B 
  B369     1.0000 0.27510  0.50000  0.66950  Biso   1.000  B 
  B370     1.0000 0.32050  0.50000  0.75800  Biso   1.000  B 
  B371     1.0000 0.16950  0.50000  0.77510  Biso   1.000  B 
  B372     1.0000 0.25800  0.50000  0.82050  Biso   1.000  B 
  B373     1.0000 0.35530  0.50000  0.79420  Biso   1.000  B 
  N13      1.0000 0.34086  0.48709  0.70531  Biso   1.000  N 
  B374     1.0000 0.29420  0.50000  0.85530  Biso   1.000  B 
  B375     1.0000 0.22490  0.50000  0.83050  Biso   1.000  B 
  B376     1.0000 0.34350  0.50000  0.84350  Biso   1.000  B 
  B377     1.0000 0.38280  0.50000  0.88280  Biso   1.000  B 
  B378     1.0000 0.38860  0.50000  0.78510  Biso   1.000  B 
  B379     1.0000 0.28510  0.50000  0.88860  Biso   1.000  B 
  B380     1.0000 0.42810  0.50000  0.86740  Biso   1.000  B 
  B381     1.0000 0.36740  0.50000  0.92810  Biso   1.000  B 
  H145     1.0000 0.37143  0.51016  0.69914  Biso   1.000  H 
  C61      1.0000 0.35585  0.43452  0.69896  Biso   1.000  C 
  C62      1.0000 0.36648  0.41804  0.64389  Biso   1.000  C 
  C63      1.0000 0.39391  0.36844  0.64500  Biso   1.000  C 
  C64      1.0000 0.39848  0.45695  0.61693  Biso   1.000  C 
  C65      1.0000 0.31797  0.40943  0.61490  Biso   1.000  C 
  H146     1.0000 0.43558  0.46172  0.63569  Biso   1.000  H 
  H147     1.0000 0.37905  0.49271  0.61721  Biso   1.000  H 
  H148     1.0000 0.40581  0.44566  0.57773  Biso   1.000  H 
  H149     1.0000 0.43047  0.37352  0.66246  Biso   1.000  H 
  H150     1.0000 0.39890  0.35288  0.60736  Biso   1.000  H 
  H151     1.0000 0.37210  0.34139  0.66706  Biso   1.000  H 
  H152     1.0000 0.29558  0.38080  0.63380  Biso   1.000  H 
  H153     1.0000 0.32681  0.39609  0.57674  Biso   1.000  H 
  H154     1.0000 0.29529  0.44374  0.61109  Biso   1.000  H 
  H155     1.0000 0.32665  0.41006  0.71500  Biso   1.000  H 
  H156     1.0000 0.39063  0.42904  0.72055  Biso   1.000  H 
  B382     1.0000 0.86740  0.50000  0.57190  Biso   1.000  B 
  B383     1.0000 0.88280  0.50000  0.61720  Biso   1.000  B 
  B384     1.0000 0.92810  0.50000  0.63260  Biso   1.000  B 
  B385     1.0000 0.84350  0.50000  0.65650  Biso   1.000  B 
  B386     1.0000 0.79420  0.50000  0.64470  Biso   1.000  B 
  B387     1.0000 0.85530  0.50000  0.70580  Biso   1.000  B 
  B388     1.0000 0.75800  0.50000  0.67950  Biso   1.000  B 
  B389     1.0000 0.78510  0.50000  0.61140  Biso   1.000  B 
  B390     1.0000 0.82050  0.50000  0.74200  Biso   1.000  B 
  B391     1.0000 0.88860  0.50000  0.71490  Biso   1.000  B 
  B392     1.0000 0.76930  0.50000  0.73070  Biso   1.000  B 
  B393     1.0000 0.73070  0.50000  0.76930  Biso   1.000  B 
  B394     1.0000 0.72490  0.50000  0.66950  Biso   1.000  B 
  B395     1.0000 0.67950  0.50000  0.75800  Biso   1.000  B 
  B396     1.0000 0.83050  0.50000  0.77510  Biso   1.000  B 
  B397     1.0000 0.74200  0.50000  0.82050  Biso   1.000  B 
  B398     1.0000 0.64470  0.50000  0.79420  Biso   1.000  B 
  N14      1.0000 0.65914  0.51291  0.70531  Biso   1.000  N 
  B399     1.0000 0.70580  0.50000  0.85530  Biso   1.000  B 
  B400     1.0000 0.77510  0.50000  0.83050  Biso   1.000  B 
  B401     1.0000 0.65650  0.50000  0.84350  Biso   1.000  B 
  B402     1.0000 0.61720  0.50000  0.88280  Biso   1.000  B 
  B403     1.0000 0.61140  0.50000  0.78510  Biso   1.000  B 
  B404     1.0000 0.71490  0.50000  0.88860  Biso   1.000  B 
  B405     1.0000 0.57190  0.50000  0.86740  Biso   1.000  B 
  B406     1.0000 0.63260  0.50000  0.92810  Biso   1.000  B 
  H157     1.0000 0.62857  0.48984  0.69914  Biso   1.000  H 
  C66      1.0000 0.64415  0.56548  0.69896  Biso   1.000  C 
  C67      1.0000 0.63352  0.58196  0.64389  Biso   1.000  C 
  C68      1.0000 0.60609  0.63156  0.64500  Biso   1.000  C 
  C69      1.0000 0.60152  0.54305  0.61693  Biso   1.000  C 
  C70      1.0000 0.68203  0.59057  0.61490  Biso   1.000  C 
  H158     1.0000 0.56442  0.53828  0.63569  Biso   1.000  H 
  H159     1.0000 0.62095  0.50729  0.61721  Biso   1.000  H 
  H160     1.0000 0.59419  0.55434  0.57773  Biso   1.000  H 
  H161     1.0000 0.56953  0.62648  0.66246  Biso   1.000  H 
  H162     1.0000 0.60110  0.64712  0.60736  Biso   1.000  H 
  H163     1.0000 0.62790  0.65861  0.66706  Biso   1.000  H 
  H164     1.0000 0.70442  0.61920  0.63380  Biso   1.000  H 
  H165     1.0000 0.67319  0.60391  0.57674  Biso   1.000  H 
  H166     1.0000 0.70471  0.55626  0.61109  Biso   1.000  H 
  H167     1.0000 0.67335  0.58994  0.71500  Biso   1.000  H 
  H168     1.0000 0.60937  0.57096  0.72055  Biso   1.000  H 
  B407     1.0000 0.86740  0.50000  0.42810  Biso   1.000  B 
  B408     1.0000 0.88280  0.50000  0.38280  Biso   1.000  B 
  B409     1.0000 0.92810  0.50000  0.36740  Biso   1.000  B 
  B410     1.0000 0.84350  0.50000  0.34350  Biso   1.000  B 
  B411     1.0000 0.79420  0.50000  0.35530  Biso   1.000  B 
  B412     1.0000 0.85530  0.50000  0.29420  Biso   1.000  B 
  B413     1.0000 0.75800  0.50000  0.32050  Biso   1.000  B 
  B414     1.0000 0.78510  0.50000  0.38860  Biso   1.000  B 
  B415     1.0000 0.82050  0.50000  0.25800  Biso   1.000  B 
  B416     1.0000 0.88860  0.50000  0.28510  Biso   1.000  B 
  B417     1.0000 0.76930  0.50000  0.26930  Biso   1.000  B 
  B418     1.0000 0.73070  0.50000  0.23070  Biso   1.000  B 
  B419     1.0000 0.72490  0.50000  0.33050  Biso   1.000  B 
  B420     1.0000 0.67950  0.50000  0.24200  Biso   1.000  B 
  B421     1.0000 0.83050  0.50000  0.22490  Biso   1.000  B 
  B422     1.0000 0.74200  0.50000  0.17950  Biso   1.000  B 
  B423     1.0000 0.64470  0.50000  0.20580  Biso   1.000  B 
  N15      1.0000 0.65914  0.48709  0.29469  Biso   1.000  N 
  B424     1.0000 0.70580  0.50000  0.14470  Biso   1.000  B 
  B425     1.0000 0.77510  0.50000  0.16950  Biso   1.000  B 
  B426     1.0000 0.65650  0.50000  0.15650  Biso   1.000  B 
  B427     1.0000 0.61720  0.50000  0.11720  Biso   1.000  B 
  B428     1.0000 0.61140  0.50000  0.21490  Biso   1.000  B 
  B429     1.0000 0.71490  0.50000  0.11140  Biso   1.000  B 
  B430     1.0000 0.57190  0.50000  0.13260  Biso   1.000  B 
  B431     1.0000 0.63260  0.50000  0.07190  Biso   1.000  B 
  H169     1.0000 0.62857  0.51016  0.30086  Biso   1.000  H 
  C71      1.0000 0.64415  0.43452  0.30105  Biso   1.000  C 
  C72      1.0000 0.63352  0.41804  0.35611  Biso   1.000  C 
  C73      1.0000 0.60609  0.36844  0.35500  Biso   1.000  C 
  C74      1.0000 0.60152  0.45695  0.38307  Biso   1.000  C 
  C75      1.0000 0.68203  0.40943  0.38510  Biso   1.000  C 
  H170     1.0000 0.56442  0.46172  0.36431  Biso   1.000  H 
  H171     1.0000 0.62095  0.49271  0.38279  Biso   1.000  H 
  H172     1.0000 0.59419  0.44566  0.42227  Biso   1.000  H 
  H173     1.0000 0.56953  0.37352  0.33754  Biso   1.000  H 
  H174     1.0000 0.60110  0.35288  0.39264  Biso   1.000  H 
  H175     1.0000 0.62790  0.34139  0.33294  Biso   1.000  H 
  H176     1.0000 0.70442  0.38080  0.36620  Biso   1.000  H 
  H177     1.0000 0.67319  0.39609  0.42326  Biso   1.000  H 
  H178     1.0000 0.70471  0.44374  0.38891  Biso   1.000  H 
  H179     1.0000 0.67335  0.41006  0.28500  Biso   1.000  H 
  H180     1.0000 0.60937  0.42904  0.27944  Biso   1.000  H 
  B432     1.0000 0.13260  0.50000  0.42810  Biso   1.000  B 
  B433     1.0000 0.11720  0.50000  0.38280  Biso   1.000  B 
  B434     1.0000 0.07190  0.50000  0.36740  Biso   1.000  B 
  B435     1.0000 0.15650  0.50000  0.34350  Biso   1.000  B 
  B436     1.0000 0.20580  0.50000  0.35530  Biso   1.000  B 
  B437     1.0000 0.14470  0.50000  0.29420  Biso   1.000  B 
  B438     1.0000 0.24200  0.50000  0.32050  Biso   1.000  B 
  B439     1.0000 0.21490  0.50000  0.38860  Biso   1.000  B 
  B440     1.0000 0.17950  0.50000  0.25800  Biso   1.000  B 
  B441     1.0000 0.11140  0.50000  0.28510  Biso   1.000  B 
  B442     1.0000 0.23070  0.50000  0.26930  Biso   1.000  B 
  B443     1.0000 0.26930  0.50000  0.23070  Biso   1.000  B 
  B444     1.0000 0.27510  0.50000  0.33050  Biso   1.000  B 
  B445     1.0000 0.32050  0.50000  0.24200  Biso   1.000  B 
  B446     1.0000 0.16950  0.50000  0.22490  Biso   1.000  B 
  B447     1.0000 0.25800  0.50000  0.17950  Biso   1.000  B 
  B448     1.0000 0.35530  0.50000  0.20580  Biso   1.000  B 
  N16      1.0000 0.34086  0.51291  0.29469  Biso   1.000  N 
  B449     1.0000 0.29420  0.50000  0.14470  Biso   1.000  B 
  B450     1.0000 0.22490  0.50000  0.16950  Biso   1.000  B 
  B451     1.0000 0.34350  0.50000  0.15650  Biso   1.000  B 
  B452     1.0000 0.38280  0.50000  0.11720  Biso   1.000  B 
  B453     1.0000 0.38860  0.50000  0.21490  Biso   1.000  B 
  B454     1.0000 0.28510  0.50000  0.11140  Biso   1.000  B 
  B455     1.0000 0.42810  0.50000  0.13260  Biso   1.000  B 
  B456     1.0000 0.36740  0.50000  0.07190  Biso   1.000  B 
  H181     1.0000 0.37143  0.48984  0.30086  Biso   1.000  H 
  C76      1.0000 0.35585  0.56548  0.30105  Biso   1.000  C 
  C77      1.0000 0.36648  0.58196  0.35611  Biso   1.000  C 
  C78      1.0000 0.39391  0.63156  0.35500  Biso   1.000  C 
  C79      1.0000 0.39848  0.54305  0.38307  Biso   1.000  C 
  C80      1.0000 0.31797  0.59057  0.38510  Biso   1.000  C 
  H182     1.0000 0.43558  0.53828  0.36431  Biso   1.000  H 
  H183     1.0000 0.37905  0.50729  0.38279  Biso   1.000  H 
  H184     1.0000 0.40581  0.55434  0.42227  Biso   1.000  H 
  H185     1.0000 0.43047  0.62648  0.33754  Biso   1.000  H 
  H186     1.0000 0.39890  0.64712  0.39264  Biso   1.000  H 
  H187     1.0000 0.37210  0.65861  0.33294  Biso   1.000  H 
  H188     1.0000 0.29558  0.61920  0.36620  Biso   1.000  H 
  H189     1.0000 0.32681  0.60391  0.42326  Biso   1.000  H 
  H190     1.0000 0.29529  0.55626  0.38891  Biso   1.000  H 
  H191     1.0000 0.32665  0.58994  0.28500  Biso   1.000  H 
  H192     1.0000 0.39063  0.57096  0.27944  Biso   1.000  H 
  B457     1.0000 0.07190  0.63260  0.50000  Biso   1.000  B 
  B458     1.0000 0.11720  0.61720  0.50000  Biso   1.000  B 
  B459     1.0000 0.13260  0.57190  0.50000  Biso   1.000  B 
  B460     1.0000 0.15650  0.65650  0.50000  Biso   1.000  B 
  B461     1.0000 0.14470  0.70580  0.50000  Biso   1.000  B 
  B462     1.0000 0.20580  0.64470  0.50000  Biso   1.000  B 
  B463     1.0000 0.17950  0.74200  0.50000  Biso   1.000  B 
  B464     1.0000 0.11140  0.71490  0.50000  Biso   1.000  B 
  B465     1.0000 0.24200  0.67950  0.50000  Biso   1.000  B 
  B466     1.0000 0.21490  0.61140  0.50000  Biso   1.000  B 
  B467     1.0000 0.23070  0.73070  0.50000  Biso   1.000  B 
  B468     1.0000 0.26930  0.76930  0.50000  Biso   1.000  B 
  B469     1.0000 0.16950  0.77510  0.50000  Biso   1.000  B 
  B470     1.0000 0.25800  0.82050  0.50000  Biso   1.000  B 
  B471     1.0000 0.27510  0.66950  0.50000  Biso   1.000  B 
  B472     1.0000 0.32050  0.75800  0.50000  Biso   1.000  B 
  B473     1.0000 0.29420  0.85530  0.50000  Biso   1.000  B 
  N17      1.0000 0.20466  0.84241  0.50019  Biso   1.000  N 
  B474     1.0000 0.35530  0.79420  0.50000  Biso   1.000  B 
  B475     1.0000 0.33050  0.72490  0.50000  Biso   1.000  B 
  B476     1.0000 0.34350  0.84350  0.50000  Biso   1.000  B 
  B477     1.0000 0.38280  0.88280  0.50000  Biso   1.000  B 
  B478     1.0000 0.28510  0.88860  0.50000  Biso   1.000  B 
  B479     1.0000 0.38860  0.78510  0.50000  Biso   1.000  B 
  B480     1.0000 0.36740  0.92810  0.50000  Biso   1.000  B 
  B481     1.0000 0.42810  0.86740  0.50000  Biso   1.000  B 
  H193     1.0000 0.20466  0.87233  0.52577  Biso   1.000  H 
  C81      1.0000 0.19283  0.85820  0.44906  Biso   1.000  C 
  C82      1.0000 0.13701  0.87322  0.44303  Biso   1.000  C 
  C83      1.0000 0.13127  0.88964  0.38667  Biso   1.000  C 
  C84      1.0000 0.12585  0.91895  0.47854  Biso   1.000  C 
  C85      1.0000 0.10357  0.82899  0.45639  Biso   1.000  C 
  H194     1.0000 0.12993  0.90717  0.51800  Biso   1.000  H 
  H195     1.0000 0.08590  0.93066  0.47351  Biso   1.000  H 
  H196     1.0000 0.14913  0.95178  0.47038  Biso   1.000  H 
  H197     1.0000 0.15337  0.92296  0.37811  Biso   1.000  H 
  H198     1.0000 0.09288  0.90060  0.37955  Biso   1.000  H 
  H199     1.0000 0.14326  0.85832  0.36170  Biso   1.000  H 
  H200     1.0000 0.10554  0.82251  0.49762  Biso   1.000  H 
  H201     1.0000 0.11592  0.79465  0.43723  Biso   1.000  H 
  H202     1.0000 0.06514  0.83426  0.44664  Biso   1.000  H 
  H203     1.0000 0.20414  0.82818  0.42261  Biso   1.000  H 
  H204     1.0000 0.21446  0.89162  0.43823  Biso   1.000  H 
  B482     1.0000 0.07190  0.36740  0.50000  Biso   1.000  B 
  B483     1.0000 0.11720  0.38280  0.50000  Biso   1.000  B 
  B484     1.0000 0.13260  0.42810  0.50000  Biso   1.000  B 
  B485     1.0000 0.15650  0.34350  0.50000  Biso   1.000  B 
  B486     1.0000 0.14470  0.29420  0.50000  Biso   1.000  B 
  B487     1.0000 0.20580  0.35530  0.50000  Biso   1.000  B 
  B488     1.0000 0.17950  0.25800  0.50000  Biso   1.000  B 
  B489     1.0000 0.11140  0.28510  0.50000  Biso   1.000  B 
  B490     1.0000 0.24200  0.32050  0.50000  Biso   1.000  B 
  B491     1.0000 0.21490  0.38860  0.50000  Biso   1.000  B 
  B492     1.0000 0.23070  0.26930  0.50000  Biso   1.000  B 
  B493     1.0000 0.26930  0.23070  0.50000  Biso   1.000  B 
  B494     1.0000 0.16950  0.22490  0.50000  Biso   1.000  B 
  B495     1.0000 0.25800  0.17950  0.50000  Biso   1.000  B 
  B496     1.0000 0.27510  0.33050  0.50000  Biso   1.000  B 
  B497     1.0000 0.32050  0.24200  0.50000  Biso   1.000  B 
  B498     1.0000 0.29420  0.14470  0.50000  Biso   1.000  B 
  N18      1.0000 0.20466  0.15759  0.49981  Biso   1.000  N 
  B499     1.0000 0.35530  0.20580  0.50000  Biso   1.000  B 
  B500     1.0000 0.33050  0.27510  0.50000  Biso   1.000  B 
  B501     1.0000 0.34350  0.15650  0.50000  Biso   1.000  B 
  B502     1.0000 0.38280  0.11720  0.50000  Biso   1.000  B 
  B503     1.0000 0.28510  0.11140  0.50000  Biso   1.000  B 
  B504     1.0000 0.38860  0.21490  0.50000  Biso   1.000  B 
  B505     1.0000 0.36740  0.07190  0.50000  Biso   1.000  B 
  B506     1.0000 0.42810  0.13260  0.50000  Biso   1.000  B 
  H205     1.0000 0.20466  0.12767  0.47423  Biso   1.000  H 
  C86      1.0000 0.19283  0.14180  0.55094  Biso   1.000  C 
  C87      1.0000 0.13701  0.12678  0.55697  Biso   1.000  C 
  C88      1.0000 0.13127  0.11036  0.61333  Biso   1.000  C 
  C89      1.0000 0.12585  0.08105  0.52146  Biso   1.000  C 
  C90      1.0000 0.10357  0.17101  0.54361  Biso   1.000  C 
  H206     1.0000 0.12993  0.09283  0.48200  Biso   1.000  H 
  H207     1.0000 0.08590  0.06934  0.52649  Biso   1.000  H 
  H208     1.0000 0.14913  0.04822  0.52962  Biso   1.000  H 
  H209     1.0000 0.15337  0.07704  0.62189  Biso   1.000  H 
  H210     1.0000 0.09288  0.09940  0.62045  Biso   1.000  H 
  H211     1.0000 0.14326  0.14167  0.63830  Biso   1.000  H 
  H212     1.0000 0.10554  0.17749  0.50238  Biso   1.000  H 
  H213     1.0000 0.11592  0.20535  0.56277  Biso   1.000  H 
  H214     1.0000 0.06514  0.16574  0.55336  Biso   1.000  H 
  H215     1.0000 0.20414  0.17182  0.57739  Biso   1.000  H 
  H216     1.0000 0.21446  0.10838  0.56177  Biso   1.000  H 
  B507     1.0000 0.92810  0.36740  0.50000  Biso   1.000  B 
  B508     1.0000 0.88280  0.38280  0.50000  Biso   1.000  B 
  B509     1.0000 0.86740  0.42810  0.50000  Biso   1.000  B 
  B510     1.0000 0.84350  0.34350  0.50000  Biso   1.000  B 
  B511     1.0000 0.85530  0.29420  0.50000  Biso   1.000  B 
  B512     1.0000 0.79420  0.35530  0.50000  Biso   1.000  B 
  B513     1.0000 0.82050  0.25800  0.50000  Biso   1.000  B 
  B514     1.0000 0.88860  0.28510  0.50000  Biso   1.000  B 
  B515     1.0000 0.75800  0.32050  0.50000  Biso   1.000  B 
  B516     1.0000 0.78510  0.38860  0.50000  Biso   1.000  B 
  B517     1.0000 0.76930  0.26930  0.50000  Biso   1.000  B 
  B518     1.0000 0.73070  0.23070  0.50000  Biso   1.000  B 
  B519     1.0000 0.83050  0.22490  0.50000  Biso   1.000  B 
  B520     1.0000 0.74200  0.17950  0.50000  Biso   1.000  B 
  B521     1.0000 0.72490  0.33050  0.50000  Biso   1.000  B 
  B522     1.0000 0.67950  0.24200  0.50000  Biso   1.000  B 
  B523     1.0000 0.70580  0.14470  0.50000  Biso   1.000  B 
  N19      1.0000 0.79535  0.15759  0.50019  Biso   1.000  N 
  B524     1.0000 0.64470  0.20580  0.50000  Biso   1.000  B 
  B525     1.0000 0.66950  0.27510  0.50000  Biso   1.000  B 
  B526     1.0000 0.65650  0.15650  0.50000  Biso   1.000  B 
  B527     1.0000 0.61720  0.11720  0.50000  Biso   1.000  B 
  B528     1.0000 0.71490  0.11140  0.50000  Biso   1.000  B 
  B529     1.0000 0.61140  0.21490  0.50000  Biso   1.000  B 
  B530     1.0000 0.63260  0.07190  0.50000  Biso   1.000  B 
  B531     1.0000 0.57190  0.13260  0.50000  Biso   1.000  B 
  H217     1.0000 0.79534  0.12767  0.52577  Biso   1.000  H 
  C91      1.0000 0.80716  0.14180  0.44906  Biso   1.000  C 
  C92      1.0000 0.86299  0.12678  0.44303  Biso   1.000  C 
  C93      1.0000 0.86873  0.11036  0.38667  Biso   1.000  C 
  C94      1.0000 0.87415  0.08105  0.47854  Biso   1.000  C 
  C95      1.0000 0.89643  0.17101  0.45639  Biso   1.000  C 
  H218     1.0000 0.87007  0.09283  0.51800  Biso   1.000  H 
  H219     1.0000 0.91410  0.06934  0.47351  Biso   1.000  H 
  H220     1.0000 0.85087  0.04822  0.47038  Biso   1.000  H 
  H221     1.0000 0.84663  0.07704  0.37811  Biso   1.000  H 
  H222     1.0000 0.90712  0.09940  0.37955  Biso   1.000  H 
  H223     1.0000 0.85674  0.14167  0.36170  Biso   1.000  H 
  H224     1.0000 0.89446  0.17749  0.49762  Biso   1.000  H 
  H225     1.0000 0.88408  0.20535  0.43723  Biso   1.000  H 
  H226     1.0000 0.93486  0.16574  0.44664  Biso   1.000  H 
  H227     1.0000 0.79587  0.17182  0.42261  Biso   1.000  H 
  H228     1.0000 0.78554  0.10838  0.43823  Biso   1.000  H 
  B532     1.0000 0.92810  0.63260  0.50000  Biso   1.000  B 
  B533     1.0000 0.88280  0.61720  0.50000  Biso   1.000  B 
  B534     1.0000 0.86740  0.57190  0.50000  Biso   1.000  B 
  B535     1.0000 0.84350  0.65650  0.50000  Biso   1.000  B 
  B536     1.0000 0.85530  0.70580  0.50000  Biso   1.000  B 
  B537     1.0000 0.79420  0.64470  0.50000  Biso   1.000  B 
  B538     1.0000 0.82050  0.74200  0.50000  Biso   1.000  B 
  B539     1.0000 0.88860  0.71490  0.50000  Biso   1.000  B 
  B540     1.0000 0.75800  0.67950  0.50000  Biso   1.000  B 
  B541     1.0000 0.78510  0.61140  0.50000  Biso   1.000  B 
  B542     1.0000 0.76930  0.73070  0.50000  Biso   1.000  B 
  B543     1.0000 0.73070  0.76930  0.50000  Biso   1.000  B 
  B544     1.0000 0.83050  0.77510  0.50000  Biso   1.000  B 
  B545     1.0000 0.74200  0.82050  0.50000  Biso   1.000  B 
  B546     1.0000 0.72490  0.66950  0.50000  Biso   1.000  B 
  B547     1.0000 0.67950  0.75800  0.50000  Biso   1.000  B 
  B548     1.0000 0.70580  0.85530  0.50000  Biso   1.000  B 
  N20      1.0000 0.79535  0.84241  0.49981  Biso   1.000  N 
  B549     1.0000 0.64470  0.79420  0.50000  Biso   1.000  B 
  B550     1.0000 0.66950  0.72490  0.50000  Biso   1.000  B 
  B551     1.0000 0.65650  0.84350  0.50000  Biso   1.000  B 
  B552     1.0000 0.61720  0.88280  0.50000  Biso   1.000  B 
  B553     1.0000 0.71490  0.88860  0.50000  Biso   1.000  B 
  B554     1.0000 0.61140  0.78510  0.50000  Biso   1.000  B 
  B555     1.0000 0.63260  0.92810  0.50000  Biso   1.000  B 
  B556     1.0000 0.57190  0.86740  0.50000  Biso   1.000  B 
  H229     1.0000 0.79534  0.87233  0.47423  Biso   1.000  H 
  C96      1.0000 0.80716  0.85820  0.55094  Biso   1.000  C 
  C97      1.0000 0.86299  0.87322  0.55697  Biso   1.000  C 
  C98      1.0000 0.86873  0.88964  0.61333  Biso   1.000  C 
  C99      1.0000 0.87415  0.91895  0.52146  Biso   1.000  C 
  C100     1.0000 0.89643  0.82899  0.54361  Biso   1.000  C 
  H230     1.0000 0.87007  0.90717  0.48200  Biso   1.000  H 
  H231     1.0000 0.91410  0.93066  0.52649  Biso   1.000  H 
  H232     1.0000 0.85087  0.95178  0.52962  Biso   1.000  H 
  H233     1.0000 0.84663  0.92296  0.62189  Biso   1.000  H 
  H234     1.0000 0.90712  0.90060  0.62045  Biso   1.000  H 
  H235     1.0000 0.85674  0.85832  0.63830  Biso   1.000  H 
  H236     1.0000 0.89446  0.82251  0.50238  Biso   1.000  H 
  H237     1.0000 0.88408  0.79465  0.56277  Biso   1.000  H 
  H238     1.0000 0.93486  0.83426  0.55336  Biso   1.000  H 
  H239     1.0000 0.79587  0.82818  0.57739  Biso   1.000  H 
  H240     1.0000 0.78554  0.89162  0.56177  Biso   1.000  H 
  B557     1.0000 0.50000  0.07190  0.63260  Biso   1.000  B 
  B558     1.0000 0.50000  0.11720  0.61720  Biso   1.000  B 
  B559     1.0000 0.50000  0.13260  0.57190  Biso   1.000  B 
  B560     1.0000 0.50000  0.15650  0.65650  Biso   1.000  B 
  B561     1.0000 0.50000  0.14470  0.70580  Biso   1.000  B 
  B562     1.0000 0.50000  0.20580  0.64470  Biso   1.000  B 
  B563     1.0000 0.50000  0.17950  0.74200  Biso   1.000  B 
  B564     1.0000 0.50000  0.11140  0.71490  Biso   1.000  B 
  B565     1.0000 0.50000  0.24200  0.67950  Biso   1.000  B 
  B566     1.0000 0.50000  0.21490  0.61140  Biso   1.000  B 
  B567     1.0000 0.50000  0.23070  0.73070  Biso   1.000  B 
  B568     1.0000 0.50000  0.26930  0.76930  Biso   1.000  B 
  B569     1.0000 0.50000  0.16950  0.77510  Biso   1.000  B 
  B570     1.0000 0.50000  0.25800  0.82050  Biso   1.000  B 
  B571     1.0000 0.50000  0.27510  0.66950  Biso   1.000  B 
  B572     1.0000 0.50000  0.32050  0.75800  Biso   1.000  B 
  B573     1.0000 0.50000  0.29420  0.85530  Biso   1.000  B 
  N21      1.0000 0.50052  0.20462  0.84272  Biso   1.000  N 
  B574     1.0000 0.50000  0.35530  0.79420  Biso   1.000  B 
  B575     1.0000 0.50000  0.33050  0.72490  Biso   1.000  B 
  B576     1.0000 0.50000  0.34350  0.84350  Biso   1.000  B 
  B577     1.0000 0.50000  0.38280  0.88280  Biso   1.000  B 
  B578     1.0000 0.50000  0.28510  0.88860  Biso   1.000  B 
  B579     1.0000 0.50000  0.38860  0.78510  Biso   1.000  B 
  B580     1.0000 0.50000  0.36740  0.92810  Biso   1.000  B 
  B581     1.0000 0.50000  0.42810  0.86740  Biso   1.000  B 
  H241     1.0000 0.52689  0.20409  0.87185  Biso   1.000  H 
  C101     1.0000 0.44964  0.19303  0.86013  Biso   1.000  C 
  C102     1.0000 0.44285  0.13669  0.87395  Biso   1.000  C 
  C103     1.0000 0.38615  0.13147  0.89098  Biso   1.000  C 
  C104     1.0000 0.47994  0.12381  0.91804  Biso   1.000  C 
  C105     1.0000 0.45477  0.10444  0.82904  Biso   1.000  C 
  H242     1.0000 0.51842  0.12582  0.90376  Biso   1.000  H 
  H243     1.0000 0.47282  0.08480  0.93208  Biso   1.000  H 
  H244     1.0000 0.47530  0.14891  0.95025  Biso   1.000  H 
  H245     1.0000 0.37948  0.15081  0.92622  Biso   1.000  H 
  H246     1.0000 0.37670  0.09272  0.89804  Biso   1.000  H 
  H247     1.0000 0.36103  0.14740  0.86150  Biso   1.000  H 
  H248     1.0000 0.49566  0.10594  0.82040  Biso   1.000  H 
  H249     1.0000 0.43422  0.11712  0.79559  Biso   1.000  H 
  H250     1.0000 0.44490  0.06609  0.83503  Biso   1.000  H 
  H251     1.0000 0.42299  0.20522  0.83060  Biso   1.000  H 
  H252     1.0000 0.43977  0.21424  0.89419  Biso   1.000  H 
  B582     1.0000 0.50000  0.07190  0.36740  Biso   1.000  B 
  B583     1.0000 0.50000  0.11720  0.38280  Biso   1.000  B 
  B584     1.0000 0.50000  0.13260  0.42810  Biso   1.000  B 
  B585     1.0000 0.50000  0.15650  0.34350  Biso   1.000  B 
  B586     1.0000 0.50000  0.14470  0.29420  Biso   1.000  B 
  B587     1.0000 0.50000  0.20580  0.35530  Biso   1.000  B 
  B588     1.0000 0.50000  0.17950  0.25800  Biso   1.000  B 
  B589     1.0000 0.50000  0.11140  0.28510  Biso   1.000  B 
  B590     1.0000 0.50000  0.24200  0.32050  Biso   1.000  B 
  B591     1.0000 0.50000  0.21490  0.38860  Biso   1.000  B 
  B592     1.0000 0.50000  0.23070  0.26930  Biso   1.000  B 
  B593     1.0000 0.50000  0.26930  0.23070  Biso   1.000  B 
  B594     1.0000 0.50000  0.16950  0.22490  Biso   1.000  B 
  B595     1.0000 0.50000  0.25800  0.17950  Biso   1.000  B 
  B596     1.0000 0.50000  0.27510  0.33050  Biso   1.000  B 
  B597     1.0000 0.50000  0.32050  0.24200  Biso   1.000  B 
  B598     1.0000 0.50000  0.29420  0.14470  Biso   1.000  B 
  N22      1.0000 0.49948  0.20462  0.15728  Biso   1.000  N 
  B599     1.0000 0.50000  0.35530  0.20580  Biso   1.000  B 
  B600     1.0000 0.50000  0.33050  0.27510  Biso   1.000  B 
  B601     1.0000 0.50000  0.34350  0.15650  Biso   1.000  B 
  B602     1.0000 0.50000  0.38280  0.11720  Biso   1.000  B 
  B603     1.0000 0.50000  0.28510  0.11140  Biso   1.000  B 
  B604     1.0000 0.50000  0.38860  0.21490  Biso   1.000  B 
  B605     1.0000 0.50000  0.36740  0.07190  Biso   1.000  B 
  B606     1.0000 0.50000  0.42810  0.13260  Biso   1.000  B 
  H253     1.0000 0.47311  0.20409  0.12815  Biso   1.000  H 
  C106     1.0000 0.55036  0.19303  0.13987  Biso   1.000  C 
  C107     1.0000 0.55715  0.13669  0.12605  Biso   1.000  C 
  C108     1.0000 0.61385  0.13147  0.10902  Biso   1.000  C 
  C109     1.0000 0.52006  0.12381  0.08196  Biso   1.000  C 
  C110     1.0000 0.54523  0.10444  0.17096  Biso   1.000  C 
  H254     1.0000 0.48158  0.12582  0.09624  Biso   1.000  H 
  H255     1.0000 0.52718  0.08480  0.06792  Biso   1.000  H 
  H256     1.0000 0.52470  0.14891  0.04975  Biso   1.000  H 
  H257     1.0000 0.62052  0.15081  0.07378  Biso   1.000  H 
  H258     1.0000 0.62330  0.09272  0.10196  Biso   1.000  H 
  H259     1.0000 0.63896  0.14740  0.13850  Biso   1.000  H 
  H260     1.0000 0.50434  0.10594  0.17960  Biso   1.000  H 
  H261     1.0000 0.56578  0.11712  0.20441  Biso   1.000  H 
  H262     1.0000 0.55510  0.06609  0.16497  Biso   1.000  H 
  H263     1.0000 0.57701  0.20522  0.16940  Biso   1.000  H 
  H264     1.0000 0.56023  0.21424  0.10582  Biso   1.000  H 
  B607     1.0000 0.50000  0.92810  0.36740  Biso   1.000  B 
  B608     1.0000 0.50000  0.88280  0.38280  Biso   1.000  B 
  B609     1.0000 0.50000  0.86740  0.42810  Biso   1.000  B 
  B610     1.0000 0.50000  0.84350  0.34350  Biso   1.000  B 
  B611     1.0000 0.50000  0.85530  0.29420  Biso   1.000  B 
  B612     1.0000 0.50000  0.79420  0.35530  Biso   1.000  B 
  B613     1.0000 0.50000  0.82050  0.25800  Biso   1.000  B 
  B614     1.0000 0.50000  0.88860  0.28510  Biso   1.000  B 
  B615     1.0000 0.50000  0.75800  0.32050  Biso   1.000  B 
  B616     1.0000 0.50000  0.78510  0.38860  Biso   1.000  B 
  B617     1.0000 0.50000  0.76930  0.26930  Biso   1.000  B 
  B618     1.0000 0.50000  0.73070  0.23070  Biso   1.000  B 
  B619     1.0000 0.50000  0.83050  0.22490  Biso   1.000  B 
  B620     1.0000 0.50000  0.74200  0.17950  Biso   1.000  B 
  B621     1.0000 0.50000  0.72490  0.33050  Biso   1.000  B 
  B622     1.0000 0.50000  0.67950  0.24200  Biso   1.000  B 
  B623     1.0000 0.50000  0.70580  0.14470  Biso   1.000  B 
  N23      1.0000 0.50052  0.79539  0.15728  Biso   1.000  N 
  B624     1.0000 0.50000  0.64470  0.20580  Biso   1.000  B 
  B625     1.0000 0.50000  0.66950  0.27510  Biso   1.000  B 
  B626     1.0000 0.50000  0.65650  0.15650  Biso   1.000  B 
  B627     1.0000 0.50000  0.61720  0.11720  Biso   1.000  B 
  B628     1.0000 0.50000  0.71490  0.11140  Biso   1.000  B 
  B629     1.0000 0.50000  0.61140  0.21490  Biso   1.000  B 
  B630     1.0000 0.50000  0.63260  0.07190  Biso   1.000  B 
  B631     1.0000 0.50000  0.57190  0.13260  Biso   1.000  B 
  H265     1.0000 0.52689  0.79591  0.12815  Biso   1.000  H 
  C111     1.0000 0.44964  0.80697  0.13987  Biso   1.000  C 
  C112     1.0000 0.44285  0.86331  0.12605  Biso   1.000  C 
  C113     1.0000 0.38615  0.86853  0.10902  Biso   1.000  C 
  C114     1.0000 0.47994  0.87619  0.08196  Biso   1.000  C 
  C115     1.0000 0.45477  0.89556  0.17096  Biso   1.000  C 
  H266     1.0000 0.51842  0.87418  0.09624  Biso   1.000  H 
  H267     1.0000 0.47282  0.91520  0.06792  Biso   1.000  H 
  H268     1.0000 0.47530  0.85110  0.04975  Biso   1.000  H 
  H269     1.0000 0.37948  0.84919  0.07378  Biso   1.000  H 
  H270     1.0000 0.37670  0.90728  0.10196  Biso   1.000  H 
  H271     1.0000 0.36103  0.85261  0.13850  Biso   1.000  H 
  H272     1.0000 0.49566  0.89406  0.17960  Biso   1.000  H 
  H273     1.0000 0.43422  0.88287  0.20441  Biso   1.000  H 
  H274     1.0000 0.44490  0.93390  0.16497  Biso   1.000  H 
  H275     1.0000 0.42299  0.79478  0.16940  Biso   1.000  H 
  H276     1.0000 0.43977  0.78576  0.10582  Biso   1.000  H 
  B632     1.0000 0.50000  0.92810  0.63260  Biso   1.000  B 
  B633     1.0000 0.50000  0.88280  0.61720  Biso   1.000  B 
  B634     1.0000 0.50000  0.86740  0.57190  Biso   1.000  B 
  B635     1.0000 0.50000  0.84350  0.65650  Biso   1.000  B 
  B636     1.0000 0.50000  0.85530  0.70580  Biso   1.000  B 
  B637     1.0000 0.50000  0.79420  0.64470  Biso   1.000  B 
  B638     1.0000 0.50000  0.82050  0.74200  Biso   1.000  B 
  B639     1.0000 0.50000  0.88860  0.71490  Biso   1.000  B 
  B640     1.0000 0.50000  0.75800  0.67950  Biso   1.000  B 
  B641     1.0000 0.50000  0.78510  0.61140  Biso   1.000  B 
  B642     1.0000 0.50000  0.76930  0.73070  Biso   1.000  B 
  B643     1.0000 0.50000  0.73070  0.76930  Biso   1.000  B 
  B644     1.0000 0.50000  0.83050  0.77510  Biso   1.000  B 
  B645     1.0000 0.50000  0.74200  0.82050  Biso   1.000  B 
  B646     1.0000 0.50000  0.72490  0.66950  Biso   1.000  B 
  B647     1.0000 0.50000  0.67950  0.75800  Biso   1.000  B 
  B648     1.0000 0.50000  0.70580  0.85530  Biso   1.000  B 
  N24      1.0000 0.49948  0.79539  0.84272  Biso   1.000  N 
  B649     1.0000 0.50000  0.64470  0.79420  Biso   1.000  B 
  B650     1.0000 0.50000  0.66950  0.72490  Biso   1.000  B 
  B651     1.0000 0.50000  0.65650  0.84350  Biso   1.000  B 
  B652     1.0000 0.50000  0.61720  0.88280  Biso   1.000  B 
  B653     1.0000 0.50000  0.71490  0.88860  Biso   1.000  B 
  B654     1.0000 0.50000  0.61140  0.78510  Biso   1.000  B 
  B655     1.0000 0.50000  0.63260  0.92810  Biso   1.000  B 
  B656     1.0000 0.50000  0.57190  0.86740  Biso   1.000  B 
  H277     1.0000 0.47311  0.79591  0.87185  Biso   1.000  H 
  C116     1.0000 0.55036  0.80697  0.86013  Biso   1.000  C 
  C117     1.0000 0.55715  0.86331  0.87395  Biso   1.000  C 
  C118     1.0000 0.61385  0.86853  0.89098  Biso   1.000  C 
  C119     1.0000 0.52006  0.87619  0.91804  Biso   1.000  C 
  C120     1.0000 0.54523  0.89556  0.82904  Biso   1.000  C 
  H278     1.0000 0.48158  0.87418  0.90376  Biso   1.000  H 
  H279     1.0000 0.52718  0.91520  0.93208  Biso   1.000  H 
  H280     1.0000 0.52470  0.85110  0.95025  Biso   1.000  H 
  H281     1.0000 0.62052  0.84919  0.92622  Biso   1.000  H 
  H282     1.0000 0.62330  0.90728  0.89804  Biso   1.000  H 
  H283     1.0000 0.63896  0.85261  0.86150  Biso   1.000  H 
  H284     1.0000 0.50434  0.89406  0.82040  Biso   1.000  H 
  H285     1.0000 0.56578  0.88287  0.79559  Biso   1.000  H 
  H286     1.0000 0.55510  0.93390  0.83503  Biso   1.000  H 
  H287     1.0000 0.57701  0.79478  0.83060  Biso   1.000  H 
  H288     1.0000 0.56023  0.78576  0.89419  Biso   1.000  H 
