data_image0
_cell_length_a       26.896
_cell_length_b       26.896
_cell_length_c       26.896
_cell_angle_alpha    90
_cell_angle_beta     90
_cell_angle_gamma    90

_symmetry_space_group_name_H-M    "P 1"
_symmetry_int_tables_number       1

loop_
  _symmetry_equiv_pos_as_xyz
  'x, y, z'

loop_
  _atom_site_label
  _atom_site_occupancy
  _atom_site_fract_x
  _atom_site_fract_y
  _atom_site_fract_z
  _atom_site_thermal_displace_type
  _atom_site_B_iso_or_equiv
  _atom_site_type_symbol
  B1       1.0000 0.09204  0.00000  0.00000  Biso   1.000  B 
  B2       1.0000 0.90796  0.00000  0.00000  Biso   1.000  B 
  B3       1.0000 0.00000  0.09204  0.00000  Biso   1.000  B 
  B4       1.0000 0.00000  0.90796  0.00000  Biso   1.000  B 
  B5       1.0000 0.00000  0.00000  0.09204  Biso   1.000  B 
  B6       1.0000 0.00000  0.00000  0.90796  Biso   1.000  B 
  B7       1.0000 0.09204  0.50000  0.50000  Biso   1.000  B 
  B8       1.0000 0.90796  0.50000  0.50000  Biso   1.000  B 
  B9       1.0000 0.00000  0.59204  0.50000  Biso   1.000  B 
  B10      1.0000 0.00000  0.40796  0.50000  Biso   1.000  B 
  B11      1.0000 0.00000  0.50000  0.59204  Biso   1.000  B 
  B12      1.0000 0.00000  0.50000  0.40796  Biso   1.000  B 
  B13      1.0000 0.59204  0.00000  0.50000  Biso   1.000  B 
  B14      1.0000 0.40796  0.00000  0.50000  Biso   1.000  B 
  B15      1.0000 0.50000  0.09204  0.50000  Biso   1.000  B 
  B16      1.0000 0.50000  0.90796  0.50000  Biso   1.000  B 
  B17      1.0000 0.50000  0.00000  0.59204  Biso   1.000  B 
  B18      1.0000 0.50000  0.00000  0.40796  Biso   1.000  B 
  B19      1.0000 0.59204  0.50000  0.00000  Biso   1.000  B 
  B20      1.0000 0.40796  0.50000  0.00000  Biso   1.000  B 
  B21      1.0000 0.50000  0.59204  0.00000  Biso   1.000  B 
  B22      1.0000 0.50000  0.40796  0.00000  Biso   1.000  B 
  B23      1.0000 0.50000  0.50000  0.09204  Biso   1.000  B 
  B24      1.0000 0.50000  0.50000  0.90796  Biso   1.000  B 
  B25      1.0000 0.04540  0.04540  0.04540  Biso   1.000  B 
  B26      1.0000 0.95460  0.95460  0.04540  Biso   1.000  B 
  B27      1.0000 0.95460  0.04540  0.95460  Biso   1.000  B 
  B28      1.0000 0.04540  0.95460  0.95460  Biso   1.000  B 
  B29      1.0000 0.04540  0.04540  0.95460  Biso   1.000  B 
  B30      1.0000 0.95460  0.95460  0.95460  Biso   1.000  B 
  B31      1.0000 0.04540  0.95460  0.04540  Biso   1.000  B 
  B32      1.0000 0.95460  0.04540  0.04540  Biso   1.000  B 
  B33      1.0000 0.04540  0.54540  0.54540  Biso   1.000  B 
  B34      1.0000 0.95460  0.45460  0.54540  Biso   1.000  B 
  B35      1.0000 0.95460  0.54540  0.45460  Biso   1.000  B 
  B36      1.0000 0.04540  0.45460  0.45460  Biso   1.000  B 
  B37      1.0000 0.04540  0.54540  0.45460  Biso   1.000  B 
  B38      1.0000 0.95460  0.45460  0.45460  Biso   1.000  B 
  B39      1.0000 0.04540  0.45460  0.54540  Biso   1.000  B 
  B40      1.0000 0.95460  0.54540  0.54540  Biso   1.000  B 
  B41      1.0000 0.54540  0.04540  0.54540  Biso   1.000  B 
  B42      1.0000 0.45460  0.95460  0.54540  Biso   1.000  B 
  B43      1.0000 0.45460  0.04540  0.45460  Biso   1.000  B 
  B44      1.0000 0.54540  0.95460  0.45460  Biso   1.000  B 
  B45      1.0000 0.54540  0.04540  0.45460  Biso   1.000  B 
  B46      1.0000 0.45460  0.95460  0.45460  Biso   1.000  B 
  B47      1.0000 0.54540  0.95460  0.54540  Biso   1.000  B 
  B48      1.0000 0.45460  0.04540  0.54540  Biso   1.000  B 
  B49      1.0000 0.54540  0.54540  0.04540  Biso   1.000  B 
  B50      1.0000 0.45460  0.45460  0.04540  Biso   1.000  B 
  B51      1.0000 0.45460  0.54540  0.95460  Biso   1.000  B 
  B52      1.0000 0.54540  0.45460  0.95460  Biso   1.000  B 
  B53      1.0000 0.54540  0.54540  0.95460  Biso   1.000  B 
  B54      1.0000 0.45460  0.45460  0.95460  Biso   1.000  B 
  B55      1.0000 0.54540  0.45460  0.04540  Biso   1.000  B 
  B56      1.0000 0.45460  0.54540  0.04540  Biso   1.000  B 
  B57      1.0000 0.13260  0.00000  0.07190  Biso   1.000  B 
  B58      1.0000 0.11720  0.00000  0.11720  Biso   1.000  B 
  B59      1.0000 0.07190  0.00000  0.13260  Biso   1.000  B 
  B60      1.0000 0.15650  0.00000  0.15650  Biso   1.000  B 
  B61      1.0000 0.20580  0.00000  0.14470  Biso   1.000  B 
  B62      1.0000 0.14470  0.00000  0.20580  Biso   1.000  B 
  B63      1.0000 0.24200  0.00000  0.17950  Biso   1.000  B 
  B64      1.0000 0.21490  0.00000  0.11140  Biso   1.000  B 
  B65      1.0000 0.17950  0.00000  0.24200  Biso   1.000  B 
  C1       1.0000 0.08885  0.98530  0.22586  Biso   1.000  C 
  B66      1.0000 0.23070  0.00000  0.23070  Biso   1.000  B 
  B67      1.0000 0.26930  0.00000  0.26930  Biso   1.000  B 
  B68      1.0000 0.27510  0.00000  0.16950  Biso   1.000  B 
  B69      1.0000 0.32050  0.00000  0.25800  Biso   1.000  B 
  B70      1.0000 0.16950  0.00000  0.27510  Biso   1.000  B 
  B71      1.0000 0.25800  0.00000  0.32050  Biso   1.000  B 
  B72      1.0000 0.35530  0.00000  0.29420  Biso   1.000  B 
  B73      1.0000 0.33050  0.00000  0.22490  Biso   1.000  B 
  B74      1.0000 0.29420  0.00000  0.35530  Biso   1.000  B 
  B75      1.0000 0.22490  0.00000  0.33050  Biso   1.000  B 
  B76      1.0000 0.34350  0.00000  0.34350  Biso   1.000  B 
  B77      1.0000 0.38280  0.00000  0.38280  Biso   1.000  B 
  C2       1.0000 0.41282  0.99996  0.27405  Biso   1.000  C 
  B78      1.0000 0.28510  0.00000  0.38860  Biso   1.000  B 
  B79      1.0000 0.42810  0.00000  0.36740  Biso   1.000  B 
  B80      1.0000 0.36740  0.00000  0.42810  Biso   1.000  B 
  F1       1.0000 0.41472  0.99993  0.22026  Biso   1.000  F 
  F2       1.0000 0.43946  0.95728  0.28883  Biso   1.000  F 
  F3       1.0000 0.43951  0.04262  0.28879  Biso   1.000  F 
  F4       1.0000 0.07888  0.93939  0.20815  Biso   1.000  F 
  F5       1.0000 0.05191  0.01905  0.21455  Biso   1.000  F 
  F6       1.0000 0.08989  0.98436  0.27742  Biso   1.000  F 
  B81      1.0000 0.86740  0.00000  0.07190  Biso   1.000  B 
  B82      1.0000 0.88280  0.00000  0.11720  Biso   1.000  B 
  B83      1.0000 0.92810  0.00000  0.13260  Biso   1.000  B 
  B84      1.0000 0.84350  0.00000  0.15650  Biso   1.000  B 
  B85      1.0000 0.79420  0.00000  0.14470  Biso   1.000  B 
  B86      1.0000 0.85530  0.00000  0.20580  Biso   1.000  B 
  B87      1.0000 0.75800  0.00000  0.17950  Biso   1.000  B 
  B88      1.0000 0.78510  0.00000  0.11140  Biso   1.000  B 
  B89      1.0000 0.82050  0.00000  0.24200  Biso   1.000  B 
  C3       1.0000 0.91115  0.01470  0.22586  Biso   1.000  C 
  B90      1.0000 0.76930  0.00000  0.23070  Biso   1.000  B 
  B91      1.0000 0.73070  0.00000  0.26930  Biso   1.000  B 
  B92      1.0000 0.72490  0.00000  0.16950  Biso   1.000  B 
  B93      1.0000 0.67950  0.00000  0.25800  Biso   1.000  B 
  B94      1.0000 0.83050  0.00000  0.27510  Biso   1.000  B 
  B95      1.0000 0.74200  0.00000  0.32050  Biso   1.000  B 
  B96      1.0000 0.64470  0.00000  0.29420  Biso   1.000  B 
  B97      1.0000 0.66950  0.00000  0.22490  Biso   1.000  B 
  B98      1.0000 0.70580  0.00000  0.35530  Biso   1.000  B 
  B99      1.0000 0.77510  0.00000  0.33050  Biso   1.000  B 
  B100     1.0000 0.65650  0.00000  0.34350  Biso   1.000  B 
  B101     1.0000 0.61720  0.00000  0.38280  Biso   1.000  B 
  C4       1.0000 0.58718  0.00004  0.27405  Biso   1.000  C 
  B102     1.0000 0.71490  0.00000  0.38860  Biso   1.000  B 
  B103     1.0000 0.57190  0.00000  0.36740  Biso   1.000  B 
  B104     1.0000 0.63260  0.00000  0.42810  Biso   1.000  B 
  F7       1.0000 0.58528  0.00007  0.22026  Biso   1.000  F 
  F8       1.0000 0.56054  0.04272  0.28883  Biso   1.000  F 
  F9       1.0000 0.56049  0.95738  0.28879  Biso   1.000  F 
  F10      1.0000 0.92112  0.06061  0.20815  Biso   1.000  F 
  F11      1.0000 0.94810  0.98096  0.21455  Biso   1.000  F 
  F12      1.0000 0.91011  0.01564  0.27742  Biso   1.000  F 
  B105     1.0000 0.86740  0.00000  0.92810  Biso   1.000  B 
  B106     1.0000 0.88280  0.00000  0.88280  Biso   1.000  B 
  B107     1.0000 0.92810  0.00000  0.86740  Biso   1.000  B 
  B108     1.0000 0.84350  0.00000  0.84350  Biso   1.000  B 
  B109     1.0000 0.79420  0.00000  0.85530  Biso   1.000  B 
  B110     1.0000 0.85530  0.00000  0.79420  Biso   1.000  B 
  B111     1.0000 0.75800  0.00000  0.82050  Biso   1.000  B 
  B112     1.0000 0.78510  0.00000  0.88860  Biso   1.000  B 
  B113     1.0000 0.82050  0.00000  0.75800  Biso   1.000  B 
  C5       1.0000 0.91115  0.98530  0.77414  Biso   1.000  C 
  B114     1.0000 0.76930  0.00000  0.76930  Biso   1.000  B 
  B115     1.0000 0.73070  0.00000  0.73070  Biso   1.000  B 
  B116     1.0000 0.72490  0.00000  0.83050  Biso   1.000  B 
  B117     1.0000 0.67950  0.00000  0.74200  Biso   1.000  B 
  B118     1.0000 0.83050  0.00000  0.72490  Biso   1.000  B 
  B119     1.0000 0.74200  0.00000  0.67950  Biso   1.000  B 
  B120     1.0000 0.64470  0.00000  0.70580  Biso   1.000  B 
  B121     1.0000 0.66950  0.00000  0.77510  Biso   1.000  B 
  B122     1.0000 0.70580  0.00000  0.64470  Biso   1.000  B 
  B123     1.0000 0.77510  0.00000  0.66950  Biso   1.000  B 
  B124     1.0000 0.65650  0.00000  0.65650  Biso   1.000  B 
  B125     1.0000 0.61720  0.00000  0.61720  Biso   1.000  B 
  C6       1.0000 0.58718  0.99996  0.72595  Biso   1.000  C 
  B126     1.0000 0.71490  0.00000  0.61140  Biso   1.000  B 
  B127     1.0000 0.57190  0.00000  0.63260  Biso   1.000  B 
  B128     1.0000 0.63260  0.00000  0.57190  Biso   1.000  B 
  F13      1.0000 0.58528  0.99993  0.77974  Biso   1.000  F 
  F14      1.0000 0.56054  0.95728  0.71117  Biso   1.000  F 
  F15      1.0000 0.56049  0.04262  0.71121  Biso   1.000  F 
  F16      1.0000 0.92112  0.93939  0.79185  Biso   1.000  F 
  F17      1.0000 0.94810  0.01905  0.78545  Biso   1.000  F 
  F18      1.0000 0.91011  0.98436  0.72258  Biso   1.000  F 
  B129     1.0000 0.13260  0.00000  0.92810  Biso   1.000  B 
  B130     1.0000 0.11720  0.00000  0.88280  Biso   1.000  B 
  B131     1.0000 0.07190  0.00000  0.86740  Biso   1.000  B 
  B132     1.0000 0.15650  0.00000  0.84350  Biso   1.000  B 
  B133     1.0000 0.20580  0.00000  0.85530  Biso   1.000  B 
  B134     1.0000 0.14470  0.00000  0.79420  Biso   1.000  B 
  B135     1.0000 0.24200  0.00000  0.82050  Biso   1.000  B 
  B136     1.0000 0.21490  0.00000  0.88860  Biso   1.000  B 
  B137     1.0000 0.17950  0.00000  0.75800  Biso   1.000  B 
  C7       1.0000 0.08885  0.01470  0.77414  Biso   1.000  C 
  B138     1.0000 0.23070  0.00000  0.76930  Biso   1.000  B 
  B139     1.0000 0.26930  0.00000  0.73070  Biso   1.000  B 
  B140     1.0000 0.27510  0.00000  0.83050  Biso   1.000  B 
  B141     1.0000 0.32050  0.00000  0.74200  Biso   1.000  B 
  B142     1.0000 0.16950  0.00000  0.72490  Biso   1.000  B 
  B143     1.0000 0.25800  0.00000  0.67950  Biso   1.000  B 
  B144     1.0000 0.35530  0.00000  0.70580  Biso   1.000  B 
  B145     1.0000 0.33050  0.00000  0.77510  Biso   1.000  B 
  B146     1.0000 0.29420  0.00000  0.64470  Biso   1.000  B 
  B147     1.0000 0.22490  0.00000  0.66950  Biso   1.000  B 
  B148     1.0000 0.34350  0.00000  0.65650  Biso   1.000  B 
  B149     1.0000 0.38280  0.00000  0.61720  Biso   1.000  B 
  C8       1.0000 0.41282  0.00004  0.72595  Biso   1.000  C 
  B150     1.0000 0.28510  0.00000  0.61140  Biso   1.000  B 
  B151     1.0000 0.42810  0.00000  0.63260  Biso   1.000  B 
  B152     1.0000 0.36740  0.00000  0.57190  Biso   1.000  B 
  F19      1.0000 0.41472  0.00007  0.77974  Biso   1.000  F 
  F20      1.0000 0.43946  0.04272  0.71117  Biso   1.000  F 
  F21      1.0000 0.43951  0.95738  0.71121  Biso   1.000  F 
  F22      1.0000 0.07888  0.06061  0.79185  Biso   1.000  F 
  F23      1.0000 0.05191  0.98096  0.78545  Biso   1.000  F 
  F24      1.0000 0.08989  0.01564  0.72258  Biso   1.000  F 
  B153     1.0000 0.07190  0.13260  0.00000  Biso   1.000  B 
  B154     1.0000 0.11720  0.11720  0.00000  Biso   1.000  B 
  B155     1.0000 0.13260  0.07190  0.00000  Biso   1.000  B 
  B156     1.0000 0.15650  0.15650  0.00000  Biso   1.000  B 
  B157     1.0000 0.14470  0.20580  0.00000  Biso   1.000  B 
  B158     1.0000 0.20580  0.14470  0.00000  Biso   1.000  B 
  B159     1.0000 0.17950  0.24200  0.00000  Biso   1.000  B 
  B160     1.0000 0.11140  0.21490  0.00000  Biso   1.000  B 
  B161     1.0000 0.24200  0.17950  0.00000  Biso   1.000  B 
  C9       1.0000 0.22586  0.08885  0.98530  Biso   1.000  C 
  B162     1.0000 0.23070  0.23070  0.00000  Biso   1.000  B 
  B163     1.0000 0.26930  0.26930  0.00000  Biso   1.000  B 
  B164     1.0000 0.16950  0.27510  0.00000  Biso   1.000  B 
  B165     1.0000 0.25800  0.32050  0.00000  Biso   1.000  B 
  B166     1.0000 0.27510  0.16950  0.00000  Biso   1.000  B 
  B167     1.0000 0.32050  0.25800  0.00000  Biso   1.000  B 
  B168     1.0000 0.29420  0.35530  0.00000  Biso   1.000  B 
  B169     1.0000 0.22490  0.33050  0.00000  Biso   1.000  B 
  B170     1.0000 0.35530  0.29420  0.00000  Biso   1.000  B 
  B171     1.0000 0.33050  0.22490  0.00000  Biso   1.000  B 
  B172     1.0000 0.34350  0.34350  0.00000  Biso   1.000  B 
  B173     1.0000 0.38280  0.38280  0.00000  Biso   1.000  B 
  C10      1.0000 0.27405  0.41282  0.99999  Biso   1.000  C 
  B174     1.0000 0.38860  0.28510  0.00000  Biso   1.000  B 
  B175     1.0000 0.36740  0.42810  0.00000  Biso   1.000  B 
  B176     1.0000 0.42810  0.36740  0.00000  Biso   1.000  B 
  F25      1.0000 0.22026  0.41472  0.99998  Biso   1.000  F 
  F26      1.0000 0.28882  0.43947  0.95731  Biso   1.000  F 
  F27      1.0000 0.28880  0.43949  0.04265  Biso   1.000  F 
  F28      1.0000 0.20815  0.07888  0.93939  Biso   1.000  F 
  F29      1.0000 0.21455  0.05191  0.01905  Biso   1.000  F 
  F30      1.0000 0.27742  0.08989  0.98436  Biso   1.000  F 
  B177     1.0000 0.07190  0.86740  0.00000  Biso   1.000  B 
  B178     1.0000 0.11720  0.88280  0.00000  Biso   1.000  B 
  B179     1.0000 0.13260  0.92810  0.00000  Biso   1.000  B 
  B180     1.0000 0.15650  0.84350  0.00000  Biso   1.000  B 
  B181     1.0000 0.14470  0.79420  0.00000  Biso   1.000  B 
  B182     1.0000 0.20580  0.85530  0.00000  Biso   1.000  B 
  B183     1.0000 0.17950  0.75800  0.00000  Biso   1.000  B 
  B184     1.0000 0.11140  0.78510  0.00000  Biso   1.000  B 
  B185     1.0000 0.24200  0.82050  0.00000  Biso   1.000  B 
  C11      1.0000 0.22586  0.91115  0.01470  Biso   1.000  C 
  B186     1.0000 0.23070  0.76930  0.00000  Biso   1.000  B 
  B187     1.0000 0.26930  0.73070  0.00000  Biso   1.000  B 
  B188     1.0000 0.16950  0.72490  0.00000  Biso   1.000  B 
  B189     1.0000 0.25800  0.67950  0.00000  Biso   1.000  B 
  B190     1.0000 0.27510  0.83050  0.00000  Biso   1.000  B 
  B191     1.0000 0.32050  0.74200  0.00000  Biso   1.000  B 
  B192     1.0000 0.29420  0.64470  0.00000  Biso   1.000  B 
  B193     1.0000 0.22490  0.66950  0.00000  Biso   1.000  B 
  B194     1.0000 0.35530  0.70580  0.00000  Biso   1.000  B 
  B195     1.0000 0.33050  0.77510  0.00000  Biso   1.000  B 
  B196     1.0000 0.34350  0.65650  0.00000  Biso   1.000  B 
  B197     1.0000 0.38280  0.61720  0.00000  Biso   1.000  B 
  C12      1.0000 0.27405  0.58718  0.00001  Biso   1.000  C 
  B198     1.0000 0.38860  0.71490  0.00000  Biso   1.000  B 
  B199     1.0000 0.36740  0.57190  0.00000  Biso   1.000  B 
  B200     1.0000 0.42810  0.63260  0.00000  Biso   1.000  B 
  F31      1.0000 0.22026  0.58528  0.00002  Biso   1.000  F 
  F32      1.0000 0.28882  0.56053  0.04269  Biso   1.000  F 
  F33      1.0000 0.28880  0.56051  0.95735  Biso   1.000  F 
  F34      1.0000 0.20815  0.92112  0.06061  Biso   1.000  F 
  F35      1.0000 0.21455  0.94810  0.98096  Biso   1.000  F 
  F36      1.0000 0.27742  0.91011  0.01564  Biso   1.000  F 
  B201     1.0000 0.92810  0.86740  0.00000  Biso   1.000  B 
  B202     1.0000 0.88280  0.88280  0.00000  Biso   1.000  B 
  B203     1.0000 0.86740  0.92810  0.00000  Biso   1.000  B 
  B204     1.0000 0.84350  0.84350  0.00000  Biso   1.000  B 
  B205     1.0000 0.85530  0.79420  0.00000  Biso   1.000  B 
  B206     1.0000 0.79420  0.85530  0.00000  Biso   1.000  B 
  B207     1.0000 0.82050  0.75800  0.00000  Biso   1.000  B 
  B208     1.0000 0.88860  0.78510  0.00000  Biso   1.000  B 
  B209     1.0000 0.75800  0.82050  0.00000  Biso   1.000  B 
  C13      1.0000 0.77414  0.91115  0.98530  Biso   1.000  C 
  B210     1.0000 0.76930  0.76930  0.00000  Biso   1.000  B 
  B211     1.0000 0.73070  0.73070  0.00000  Biso   1.000  B 
  B212     1.0000 0.83050  0.72490  0.00000  Biso   1.000  B 
  B213     1.0000 0.74200  0.67950  0.00000  Biso   1.000  B 
  B214     1.0000 0.72490  0.83050  0.00000  Biso   1.000  B 
  B215     1.0000 0.67950  0.74200  0.00000  Biso   1.000  B 
  B216     1.0000 0.70580  0.64470  0.00000  Biso   1.000  B 
  B217     1.0000 0.77510  0.66950  0.00000  Biso   1.000  B 
  B218     1.0000 0.64470  0.70580  0.00000  Biso   1.000  B 
  B219     1.0000 0.66950  0.77510  0.00000  Biso   1.000  B 
  B220     1.0000 0.65650  0.65650  0.00000  Biso   1.000  B 
  B221     1.0000 0.61720  0.61720  0.00000  Biso   1.000  B 
  C14      1.0000 0.72595  0.58718  0.99999  Biso   1.000  C 
  B222     1.0000 0.61140  0.71490  0.00000  Biso   1.000  B 
  B223     1.0000 0.63260  0.57190  0.00000  Biso   1.000  B 
  B224     1.0000 0.57190  0.63260  0.00000  Biso   1.000  B 
  F37      1.0000 0.77974  0.58528  0.99998  Biso   1.000  F 
  F38      1.0000 0.71118  0.56053  0.95731  Biso   1.000  F 
  F39      1.0000 0.71119  0.56051  0.04265  Biso   1.000  F 
  F40      1.0000 0.79185  0.92112  0.93939  Biso   1.000  F 
  F41      1.0000 0.78545  0.94810  0.01905  Biso   1.000  F 
  F42      1.0000 0.72258  0.91011  0.98436  Biso   1.000  F 
  B225     1.0000 0.92810  0.13260  0.00000  Biso   1.000  B 
  B226     1.0000 0.88280  0.11720  0.00000  Biso   1.000  B 
  B227     1.0000 0.86740  0.07190  0.00000  Biso   1.000  B 
  B228     1.0000 0.84350  0.15650  0.00000  Biso   1.000  B 
  B229     1.0000 0.85530  0.20580  0.00000  Biso   1.000  B 
  B230     1.0000 0.79420  0.14470  0.00000  Biso   1.000  B 
  B231     1.0000 0.82050  0.24200  0.00000  Biso   1.000  B 
  B232     1.0000 0.88860  0.21490  0.00000  Biso   1.000  B 
  B233     1.0000 0.75800  0.17950  0.00000  Biso   1.000  B 
  C15      1.0000 0.77414  0.08885  0.01470  Biso   1.000  C 
  B234     1.0000 0.76930  0.23070  0.00000  Biso   1.000  B 
  B235     1.0000 0.73070  0.26930  0.00000  Biso   1.000  B 
  B236     1.0000 0.83050  0.27510  0.00000  Biso   1.000  B 
  B237     1.0000 0.74200  0.32050  0.00000  Biso   1.000  B 
  B238     1.0000 0.72490  0.16950  0.00000  Biso   1.000  B 
  B239     1.0000 0.67950  0.25800  0.00000  Biso   1.000  B 
  B240     1.0000 0.70580  0.35530  0.00000  Biso   1.000  B 
  B241     1.0000 0.77510  0.33050  0.00000  Biso   1.000  B 
  B242     1.0000 0.64470  0.29420  0.00000  Biso   1.000  B 
  B243     1.0000 0.66950  0.22490  0.00000  Biso   1.000  B 
  B244     1.0000 0.65650  0.34350  0.00000  Biso   1.000  B 
  B245     1.0000 0.61720  0.38280  0.00000  Biso   1.000  B 
  C16      1.0000 0.72595  0.41282  0.00001  Biso   1.000  C 
  B246     1.0000 0.61140  0.28510  0.00000  Biso   1.000  B 
  B247     1.0000 0.63260  0.42810  0.00000  Biso   1.000  B 
  B248     1.0000 0.57190  0.36740  0.00000  Biso   1.000  B 
  F43      1.0000 0.77974  0.41472  0.00002  Biso   1.000  F 
  F44      1.0000 0.71118  0.43947  0.04269  Biso   1.000  F 
  F45      1.0000 0.71119  0.43949  0.95735  Biso   1.000  F 
  F46      1.0000 0.79185  0.07888  0.06061  Biso   1.000  F 
  F47      1.0000 0.78545  0.05191  0.98096  Biso   1.000  F 
  F48      1.0000 0.72258  0.08989  0.01564  Biso   1.000  F 
  B249     1.0000 0.00000  0.07190  0.13260  Biso   1.000  B 
  B250     1.0000 0.00000  0.11720  0.11720  Biso   1.000  B 
  B251     1.0000 0.00000  0.13260  0.07190  Biso   1.000  B 
  B252     1.0000 0.00000  0.15650  0.15650  Biso   1.000  B 
  B253     1.0000 0.00000  0.14470  0.20580  Biso   1.000  B 
  B254     1.0000 0.00000  0.20580  0.14470  Biso   1.000  B 
  B255     1.0000 0.00000  0.17950  0.24200  Biso   1.000  B 
  B256     1.0000 0.00000  0.11140  0.21490  Biso   1.000  B 
  B257     1.0000 0.00000  0.24200  0.17950  Biso   1.000  B 
  C17      1.0000 0.98528  0.22587  0.08885  Biso   1.000  C 
  B258     1.0000 0.00000  0.23070  0.23070  Biso   1.000  B 
  B259     1.0000 0.00000  0.26930  0.26930  Biso   1.000  B 
  B260     1.0000 0.00000  0.16950  0.27510  Biso   1.000  B 
  B261     1.0000 0.00000  0.25800  0.32050  Biso   1.000  B 
  B262     1.0000 0.00000  0.27510  0.16950  Biso   1.000  B 
  B263     1.0000 0.00000  0.32050  0.25800  Biso   1.000  B 
  B264     1.0000 0.00000  0.29420  0.35530  Biso   1.000  B 
  B265     1.0000 0.00000  0.22490  0.33050  Biso   1.000  B 
  B266     1.0000 0.00000  0.35530  0.29420  Biso   1.000  B 
  B267     1.0000 0.00000  0.33050  0.22490  Biso   1.000  B 
  B268     1.0000 0.00000  0.34350  0.34350  Biso   1.000  B 
  B269     1.0000 0.00000  0.38280  0.38280  Biso   1.000  B 
  C18      1.0000 0.99993  0.27405  0.41282  Biso   1.000  C 
  B270     1.0000 0.00000  0.38860  0.28510  Biso   1.000  B 
  B271     1.0000 0.00000  0.36740  0.42810  Biso   1.000  B 
  B272     1.0000 0.00000  0.42810  0.36740  Biso   1.000  B 
  F49      1.0000 0.99987  0.22025  0.41472  Biso   1.000  F 
  F50      1.0000 0.95724  0.28884  0.43943  Biso   1.000  F 
  F51      1.0000 0.04258  0.28877  0.43954  Biso   1.000  F 
  F52      1.0000 0.93936  0.20818  0.07889  Biso   1.000  F 
  F53      1.0000 0.01902  0.21456  0.05190  Biso   1.000  F 
  F54      1.0000 0.98437  0.27743  0.08990  Biso   1.000  F 
  B273     1.0000 0.00000  0.07190  0.86740  Biso   1.000  B 
  B274     1.0000 0.00000  0.11720  0.88280  Biso   1.000  B 
  B275     1.0000 0.00000  0.13260  0.92810  Biso   1.000  B 
  B276     1.0000 0.00000  0.15650  0.84350  Biso   1.000  B 
  B277     1.0000 0.00000  0.14470  0.79420  Biso   1.000  B 
  B278     1.0000 0.00000  0.20580  0.85530  Biso   1.000  B 
  B279     1.0000 0.00000  0.17950  0.75800  Biso   1.000  B 
  B280     1.0000 0.00000  0.11140  0.78510  Biso   1.000  B 
  B281     1.0000 0.00000  0.24200  0.82050  Biso   1.000  B 
  C19      1.0000 0.01472  0.22587  0.91115  Biso   1.000  C 
  B282     1.0000 0.00000  0.23070  0.76930  Biso   1.000  B 
  B283     1.0000 0.00000  0.26930  0.73070  Biso   1.000  B 
  B284     1.0000 0.00000  0.16950  0.72490  Biso   1.000  B 
  B285     1.0000 0.00000  0.25800  0.67950  Biso   1.000  B 
  B286     1.0000 0.00000  0.27510  0.83050  Biso   1.000  B 
  B287     1.0000 0.00000  0.32050  0.74200  Biso   1.000  B 
  B288     1.0000 0.00000  0.29420  0.64470  Biso   1.000  B 
  B289     1.0000 0.00000  0.22490  0.66950  Biso   1.000  B 
  B290     1.0000 0.00000  0.35530  0.70580  Biso   1.000  B 
  B291     1.0000 0.00000  0.33050  0.77510  Biso   1.000  B 
  B292     1.0000 0.00000  0.34350  0.65650  Biso   1.000  B 
  B293     1.0000 0.00000  0.38280  0.61720  Biso   1.000  B 
  C20      1.0000 0.00007  0.27405  0.58718  Biso   1.000  C 
  B294     1.0000 0.00000  0.38860  0.71490  Biso   1.000  B 
  B295     1.0000 0.00000  0.36740  0.57190  Biso   1.000  B 
  B296     1.0000 0.00000  0.42810  0.63260  Biso   1.000  B 
  F55      1.0000 0.00013  0.22025  0.58528  Biso   1.000  F 
  F56      1.0000 0.04276  0.28884  0.56057  Biso   1.000  F 
  F57      1.0000 0.95742  0.28877  0.56046  Biso   1.000  F 
  F58      1.0000 0.06064  0.20818  0.92111  Biso   1.000  F 
  F59      1.0000 0.98099  0.21456  0.94810  Biso   1.000  F 
  F60      1.0000 0.01563  0.27743  0.91010  Biso   1.000  F 
  B297     1.0000 0.00000  0.92810  0.86740  Biso   1.000  B 
  B298     1.0000 0.00000  0.88280  0.88280  Biso   1.000  B 
  B299     1.0000 0.00000  0.86740  0.92810  Biso   1.000  B 
  B300     1.0000 0.00000  0.84350  0.84350  Biso   1.000  B 
  B301     1.0000 0.00000  0.85530  0.79420  Biso   1.000  B 
  B302     1.0000 0.00000  0.79420  0.85530  Biso   1.000  B 
  B303     1.0000 0.00000  0.82050  0.75800  Biso   1.000  B 
  B304     1.0000 0.00000  0.88860  0.78510  Biso   1.000  B 
  B305     1.0000 0.00000  0.75800  0.82050  Biso   1.000  B 
  C21      1.0000 0.98528  0.77413  0.91115  Biso   1.000  C 
  B306     1.0000 0.00000  0.76930  0.76930  Biso   1.000  B 
  B307     1.0000 0.00000  0.73070  0.73070  Biso   1.000  B 
  B308     1.0000 0.00000  0.83050  0.72490  Biso   1.000  B 
  B309     1.0000 0.00000  0.74200  0.67950  Biso   1.000  B 
  B310     1.0000 0.00000  0.72490  0.83050  Biso   1.000  B 
  B311     1.0000 0.00000  0.67950  0.74200  Biso   1.000  B 
  B312     1.0000 0.00000  0.70580  0.64470  Biso   1.000  B 
  B313     1.0000 0.00000  0.77510  0.66950  Biso   1.000  B 
  B314     1.0000 0.00000  0.64470  0.70580  Biso   1.000  B 
  B315     1.0000 0.00000  0.66950  0.77510  Biso   1.000  B 
  B316     1.0000 0.00000  0.65650  0.65650  Biso   1.000  B 
  B317     1.0000 0.00000  0.61720  0.61720  Biso   1.000  B 
  C22      1.0000 0.99993  0.72595  0.58718  Biso   1.000  C 
  B318     1.0000 0.00000  0.61140  0.71490  Biso   1.000  B 
  B319     1.0000 0.00000  0.63260  0.57190  Biso   1.000  B 
  B320     1.0000 0.00000  0.57190  0.63260  Biso   1.000  B 
  F61      1.0000 0.99987  0.77974  0.58528  Biso   1.000  F 
  F62      1.0000 0.95724  0.71115  0.56057  Biso   1.000  F 
  F63      1.0000 0.04258  0.71123  0.56046  Biso   1.000  F 
  F64      1.0000 0.93936  0.79182  0.92111  Biso   1.000  F 
  F65      1.0000 0.01902  0.78544  0.94810  Biso   1.000  F 
  F66      1.0000 0.98437  0.72257  0.91010  Biso   1.000  F 
  B321     1.0000 0.00000  0.92810  0.13260  Biso   1.000  B 
  B322     1.0000 0.00000  0.88280  0.11720  Biso   1.000  B 
  B323     1.0000 0.00000  0.86740  0.07190  Biso   1.000  B 
  B324     1.0000 0.00000  0.84350  0.15650  Biso   1.000  B 
  B325     1.0000 0.00000  0.85530  0.20580  Biso   1.000  B 
  B326     1.0000 0.00000  0.79420  0.14470  Biso   1.000  B 
  B327     1.0000 0.00000  0.82050  0.24200  Biso   1.000  B 
  B328     1.0000 0.00000  0.88860  0.21490  Biso   1.000  B 
  B329     1.0000 0.00000  0.75800  0.17950  Biso   1.000  B 
  C23      1.0000 0.01472  0.77413  0.08885  Biso   1.000  C 
  B330     1.0000 0.00000  0.76930  0.23070  Biso   1.000  B 
  B331     1.0000 0.00000  0.73070  0.26930  Biso   1.000  B 
  B332     1.0000 0.00000  0.83050  0.27510  Biso   1.000  B 
  B333     1.0000 0.00000  0.74200  0.32050  Biso   1.000  B 
  B334     1.0000 0.00000  0.72490  0.16950  Biso   1.000  B 
  B335     1.0000 0.00000  0.67950  0.25800  Biso   1.000  B 
  B336     1.0000 0.00000  0.70580  0.35530  Biso   1.000  B 
  B337     1.0000 0.00000  0.77510  0.33050  Biso   1.000  B 
  B338     1.0000 0.00000  0.64470  0.29420  Biso   1.000  B 
  B339     1.0000 0.00000  0.66950  0.22490  Biso   1.000  B 
  B340     1.0000 0.00000  0.65650  0.34350  Biso   1.000  B 
  B341     1.0000 0.00000  0.61720  0.38280  Biso   1.000  B 
  C24      1.0000 0.00007  0.72595  0.41282  Biso   1.000  C 
  B342     1.0000 0.00000  0.61140  0.28510  Biso   1.000  B 
  B343     1.0000 0.00000  0.63260  0.42810  Biso   1.000  B 
  B344     1.0000 0.00000  0.57190  0.36740  Biso   1.000  B 
  F67      1.0000 0.00013  0.77974  0.41472  Biso   1.000  F 
  F68      1.0000 0.04276  0.71115  0.43943  Biso   1.000  F 
  F69      1.0000 0.95742  0.71123  0.43954  Biso   1.000  F 
  F70      1.0000 0.06064  0.79182  0.07889  Biso   1.000  F 
  F71      1.0000 0.98099  0.78544  0.05190  Biso   1.000  F 
  F72      1.0000 0.01563  0.72257  0.08990  Biso   1.000  F 
  B345     1.0000 0.13260  0.50000  0.57190  Biso   1.000  B 
  B346     1.0000 0.11720  0.50000  0.61720  Biso   1.000  B 
  B347     1.0000 0.07190  0.50000  0.63260  Biso   1.000  B 
  B348     1.0000 0.15650  0.50000  0.65650  Biso   1.000  B 
  B349     1.0000 0.20580  0.50000  0.64470  Biso   1.000  B 
  B350     1.0000 0.14470  0.50000  0.70580  Biso   1.000  B 
  B351     1.0000 0.24200  0.50000  0.67950  Biso   1.000  B 
  B352     1.0000 0.21490  0.50000  0.61140  Biso   1.000  B 
  B353     1.0000 0.17950  0.50000  0.74200  Biso   1.000  B 
  C25      1.0000 0.08882  0.48540  0.72575  Biso   1.000  C 
  B354     1.0000 0.23070  0.50000  0.73070  Biso   1.000  B 
  B355     1.0000 0.26930  0.50000  0.76930  Biso   1.000  B 
  B356     1.0000 0.27510  0.50000  0.66950  Biso   1.000  B 
  B357     1.0000 0.32050  0.50000  0.75800  Biso   1.000  B 
  B358     1.0000 0.16950  0.50000  0.77510  Biso   1.000  B 
  B359     1.0000 0.25800  0.50000  0.82050  Biso   1.000  B 
  B360     1.0000 0.35530  0.50000  0.79420  Biso   1.000  B 
  B361     1.0000 0.33050  0.50000  0.72490  Biso   1.000  B 
  B362     1.0000 0.29420  0.50000  0.85530  Biso   1.000  B 
  B363     1.0000 0.22490  0.50000  0.83050  Biso   1.000  B 
  B364     1.0000 0.34350  0.50000  0.84350  Biso   1.000  B 
  B365     1.0000 0.38280  0.50000  0.88280  Biso   1.000  B 
  C26      1.0000 0.41282  0.49999  0.77405  Biso   1.000  C 
  B366     1.0000 0.28510  0.50000  0.88860  Biso   1.000  B 
  B367     1.0000 0.42810  0.50000  0.86740  Biso   1.000  B 
  B368     1.0000 0.36740  0.50000  0.92810  Biso   1.000  B 
  F73      1.0000 0.41472  0.49998  0.72026  Biso   1.000  F 
  F74      1.0000 0.43947  0.45731  0.78882  Biso   1.000  F 
  F75      1.0000 0.43949  0.54265  0.78881  Biso   1.000  F 
  F76      1.0000 0.07875  0.43962  0.70774  Biso   1.000  F 
  F77      1.0000 0.05196  0.51932  0.71444  Biso   1.000  F 
  F78      1.0000 0.08981  0.48427  0.77728  Biso   1.000  F 
  B369     1.0000 0.86740  0.50000  0.57190  Biso   1.000  B 
  B370     1.0000 0.88280  0.50000  0.61720  Biso   1.000  B 
  B371     1.0000 0.92810  0.50000  0.63260  Biso   1.000  B 
  B372     1.0000 0.84350  0.50000  0.65650  Biso   1.000  B 
  B373     1.0000 0.79420  0.50000  0.64470  Biso   1.000  B 
  B374     1.0000 0.85530  0.50000  0.70580  Biso   1.000  B 
  B375     1.0000 0.75800  0.50000  0.67950  Biso   1.000  B 
  B376     1.0000 0.78510  0.50000  0.61140  Biso   1.000  B 
  B377     1.0000 0.82050  0.50000  0.74200  Biso   1.000  B 
  C27      1.0000 0.91118  0.51460  0.72575  Biso   1.000  C 
  B378     1.0000 0.76930  0.50000  0.73070  Biso   1.000  B 
  B379     1.0000 0.73070  0.50000  0.76930  Biso   1.000  B 
  B380     1.0000 0.72490  0.50000  0.66950  Biso   1.000  B 
  B381     1.0000 0.67950  0.50000  0.75800  Biso   1.000  B 
  B382     1.0000 0.83050  0.50000  0.77510  Biso   1.000  B 
  B383     1.0000 0.74200  0.50000  0.82050  Biso   1.000  B 
  B384     1.0000 0.64470  0.50000  0.79420  Biso   1.000  B 
  B385     1.0000 0.66950  0.50000  0.72490  Biso   1.000  B 
  B386     1.0000 0.70580  0.50000  0.85530  Biso   1.000  B 
  B387     1.0000 0.77510  0.50000  0.83050  Biso   1.000  B 
  B388     1.0000 0.65650  0.50000  0.84350  Biso   1.000  B 
  B389     1.0000 0.61720  0.50000  0.88280  Biso   1.000  B 
  C28      1.0000 0.58718  0.50001  0.77405  Biso   1.000  C 
  B390     1.0000 0.71490  0.50000  0.88860  Biso   1.000  B 
  B391     1.0000 0.57190  0.50000  0.86740  Biso   1.000  B 
  B392     1.0000 0.63260  0.50000  0.92810  Biso   1.000  B 
  F79      1.0000 0.58528  0.50002  0.72026  Biso   1.000  F 
  F80      1.0000 0.56053  0.54269  0.78882  Biso   1.000  F 
  F81      1.0000 0.56051  0.45735  0.78881  Biso   1.000  F 
  F82      1.0000 0.92125  0.56038  0.70774  Biso   1.000  F 
  F83      1.0000 0.94804  0.48068  0.71444  Biso   1.000  F 
  F84      1.0000 0.91019  0.51573  0.77728  Biso   1.000  F 
  B393     1.0000 0.86740  0.50000  0.42810  Biso   1.000  B 
  B394     1.0000 0.88280  0.50000  0.38280  Biso   1.000  B 
  B395     1.0000 0.92810  0.50000  0.36740  Biso   1.000  B 
  B396     1.0000 0.84350  0.50000  0.34350  Biso   1.000  B 
  B397     1.0000 0.79420  0.50000  0.35530  Biso   1.000  B 
  B398     1.0000 0.85530  0.50000  0.29420  Biso   1.000  B 
  B399     1.0000 0.75800  0.50000  0.32050  Biso   1.000  B 
  B400     1.0000 0.78510  0.50000  0.38860  Biso   1.000  B 
  B401     1.0000 0.82050  0.50000  0.25800  Biso   1.000  B 
  C29      1.0000 0.91118  0.48540  0.27425  Biso   1.000  C 
  B402     1.0000 0.76930  0.50000  0.26930  Biso   1.000  B 
  B403     1.0000 0.73070  0.50000  0.23070  Biso   1.000  B 
  B404     1.0000 0.72490  0.50000  0.33050  Biso   1.000  B 
  B405     1.0000 0.67950  0.50000  0.24200  Biso   1.000  B 
  B406     1.0000 0.83050  0.50000  0.22490  Biso   1.000  B 
  B407     1.0000 0.74200  0.50000  0.17950  Biso   1.000  B 
  B408     1.0000 0.64470  0.50000  0.20580  Biso   1.000  B 
  B409     1.0000 0.66950  0.50000  0.27510  Biso   1.000  B 
  B410     1.0000 0.70580  0.50000  0.14470  Biso   1.000  B 
  B411     1.0000 0.77510  0.50000  0.16950  Biso   1.000  B 
  B412     1.0000 0.65650  0.50000  0.15650  Biso   1.000  B 
  B413     1.0000 0.61720  0.50000  0.11720  Biso   1.000  B 
  C30      1.0000 0.58718  0.49999  0.22595  Biso   1.000  C 
  B414     1.0000 0.71490  0.50000  0.11140  Biso   1.000  B 
  B415     1.0000 0.57190  0.50000  0.13260  Biso   1.000  B 
  B416     1.0000 0.63260  0.50000  0.07190  Biso   1.000  B 
  F85      1.0000 0.58528  0.49998  0.27974  Biso   1.000  F 
  F86      1.0000 0.56053  0.45731  0.21118  Biso   1.000  F 
  F87      1.0000 0.56051  0.54265  0.21120  Biso   1.000  F 
  F88      1.0000 0.92125  0.43962  0.29225  Biso   1.000  F 
  F89      1.0000 0.94804  0.51932  0.28556  Biso   1.000  F 
  F90      1.0000 0.91019  0.48427  0.22272  Biso   1.000  F 
  B417     1.0000 0.13260  0.50000  0.42810  Biso   1.000  B 
  B418     1.0000 0.11720  0.50000  0.38280  Biso   1.000  B 
  B419     1.0000 0.07190  0.50000  0.36740  Biso   1.000  B 
  B420     1.0000 0.15650  0.50000  0.34350  Biso   1.000  B 
  B421     1.0000 0.20580  0.50000  0.35530  Biso   1.000  B 
  B422     1.0000 0.14470  0.50000  0.29420  Biso   1.000  B 
  B423     1.0000 0.24200  0.50000  0.32050  Biso   1.000  B 
  B424     1.0000 0.21490  0.50000  0.38860  Biso   1.000  B 
  B425     1.0000 0.17950  0.50000  0.25800  Biso   1.000  B 
  C31      1.0000 0.08882  0.51460  0.27425  Biso   1.000  C 
  B426     1.0000 0.23070  0.50000  0.26930  Biso   1.000  B 
  B427     1.0000 0.26930  0.50000  0.23070  Biso   1.000  B 
  B428     1.0000 0.27510  0.50000  0.33050  Biso   1.000  B 
  B429     1.0000 0.32050  0.50000  0.24200  Biso   1.000  B 
  B430     1.0000 0.16950  0.50000  0.22490  Biso   1.000  B 
  B431     1.0000 0.25800  0.50000  0.17950  Biso   1.000  B 
  B432     1.0000 0.35530  0.50000  0.20580  Biso   1.000  B 
  B433     1.0000 0.33050  0.50000  0.27510  Biso   1.000  B 
  B434     1.0000 0.29420  0.50000  0.14470  Biso   1.000  B 
  B435     1.0000 0.22490  0.50000  0.16950  Biso   1.000  B 
  B436     1.0000 0.34350  0.50000  0.15650  Biso   1.000  B 
  B437     1.0000 0.38280  0.50000  0.11720  Biso   1.000  B 
  C32      1.0000 0.41282  0.50001  0.22595  Biso   1.000  C 
  B438     1.0000 0.28510  0.50000  0.11140  Biso   1.000  B 
  B439     1.0000 0.42810  0.50000  0.13260  Biso   1.000  B 
  B440     1.0000 0.36740  0.50000  0.07190  Biso   1.000  B 
  F91      1.0000 0.41472  0.50002  0.27974  Biso   1.000  F 
  F92      1.0000 0.43947  0.54269  0.21118  Biso   1.000  F 
  F93      1.0000 0.43949  0.45735  0.21120  Biso   1.000  F 
  F94      1.0000 0.07875  0.56038  0.29225  Biso   1.000  F 
  F95      1.0000 0.05196  0.48068  0.28556  Biso   1.000  F 
  F96      1.0000 0.08981  0.51573  0.22272  Biso   1.000  F 
  B441     1.0000 0.07190  0.63260  0.50000  Biso   1.000  B 
  B442     1.0000 0.11720  0.61720  0.50000  Biso   1.000  B 
  B443     1.0000 0.13260  0.57190  0.50000  Biso   1.000  B 
  B444     1.0000 0.15650  0.65650  0.50000  Biso   1.000  B 
  B445     1.0000 0.14470  0.70580  0.50000  Biso   1.000  B 
  B446     1.0000 0.20580  0.64470  0.50000  Biso   1.000  B 
  B447     1.0000 0.17950  0.74200  0.50000  Biso   1.000  B 
  B448     1.0000 0.11140  0.71490  0.50000  Biso   1.000  B 
  B449     1.0000 0.24200  0.67950  0.50000  Biso   1.000  B 
  C33      1.0000 0.22569  0.58880  0.48545  Biso   1.000  C 
  B450     1.0000 0.23070  0.73070  0.50000  Biso   1.000  B 
  B451     1.0000 0.26930  0.76930  0.50000  Biso   1.000  B 
  B452     1.0000 0.16950  0.77510  0.50000  Biso   1.000  B 
  B453     1.0000 0.25800  0.82050  0.50000  Biso   1.000  B 
  B454     1.0000 0.27510  0.66950  0.50000  Biso   1.000  B 
  B455     1.0000 0.32050  0.75800  0.50000  Biso   1.000  B 
  B456     1.0000 0.29420  0.85530  0.50000  Biso   1.000  B 
  B457     1.0000 0.22490  0.83050  0.50000  Biso   1.000  B 
  B458     1.0000 0.35530  0.79420  0.50000  Biso   1.000  B 
  B459     1.0000 0.33050  0.72490  0.50000  Biso   1.000  B 
  B460     1.0000 0.34350  0.84350  0.50000  Biso   1.000  B 
  B461     1.0000 0.38280  0.88280  0.50000  Biso   1.000  B 
  C34      1.0000 0.27405  0.91282  0.49996  Biso   1.000  C 
  B462     1.0000 0.38860  0.78510  0.50000  Biso   1.000  B 
  B463     1.0000 0.36740  0.92810  0.50000  Biso   1.000  B 
  B464     1.0000 0.42810  0.86740  0.50000  Biso   1.000  B 
  F97      1.0000 0.22025  0.91472  0.49993  Biso   1.000  F 
  F98      1.0000 0.28883  0.93946  0.45728  Biso   1.000  F 
  F99      1.0000 0.28879  0.93951  0.54262  Biso   1.000  F 
  F100     1.0000 0.20751  0.57869  0.43975  Biso   1.000  F 
  F101     1.0000 0.21439  0.55199  0.51945  Biso   1.000  F 
  F102     1.0000 0.27720  0.58977  0.48419  Biso   1.000  F 
  B465     1.0000 0.07190  0.36740  0.50000  Biso   1.000  B 
  B466     1.0000 0.11720  0.38280  0.50000  Biso   1.000  B 
  B467     1.0000 0.13260  0.42810  0.50000  Biso   1.000  B 
  B468     1.0000 0.15650  0.34350  0.50000  Biso   1.000  B 
  B469     1.0000 0.14470  0.29420  0.50000  Biso   1.000  B 
  B470     1.0000 0.20580  0.35530  0.50000  Biso   1.000  B 
  B471     1.0000 0.17950  0.25800  0.50000  Biso   1.000  B 
  B472     1.0000 0.11140  0.28510  0.50000  Biso   1.000  B 
  B473     1.0000 0.24200  0.32050  0.50000  Biso   1.000  B 
  C35      1.0000 0.22569  0.41120  0.51455  Biso   1.000  C 
  B474     1.0000 0.23070  0.26930  0.50000  Biso   1.000  B 
  B475     1.0000 0.26930  0.23070  0.50000  Biso   1.000  B 
  B476     1.0000 0.16950  0.22490  0.50000  Biso   1.000  B 
  B477     1.0000 0.25800  0.17950  0.50000  Biso   1.000  B 
  B478     1.0000 0.27510  0.33050  0.50000  Biso   1.000  B 
  B479     1.0000 0.32050  0.24200  0.50000  Biso   1.000  B 
  B480     1.0000 0.29420  0.14470  0.50000  Biso   1.000  B 
  B481     1.0000 0.22490  0.16950  0.50000  Biso   1.000  B 
  B482     1.0000 0.35530  0.20580  0.50000  Biso   1.000  B 
  B483     1.0000 0.33050  0.27510  0.50000  Biso   1.000  B 
  B484     1.0000 0.34350  0.15650  0.50000  Biso   1.000  B 
  B485     1.0000 0.38280  0.11720  0.50000  Biso   1.000  B 
  C36      1.0000 0.27405  0.08718  0.50004  Biso   1.000  C 
  B486     1.0000 0.38860  0.21490  0.50000  Biso   1.000  B 
  B487     1.0000 0.36740  0.07190  0.50000  Biso   1.000  B 
  B488     1.0000 0.42810  0.13260  0.50000  Biso   1.000  B 
  F103     1.0000 0.22025  0.08528  0.50007  Biso   1.000  F 
  F104     1.0000 0.28883  0.06054  0.54272  Biso   1.000  F 
  F105     1.0000 0.28879  0.06049  0.45738  Biso   1.000  F 
  F106     1.0000 0.20751  0.42131  0.56025  Biso   1.000  F 
  F107     1.0000 0.21439  0.44801  0.48055  Biso   1.000  F 
  F108     1.0000 0.27720  0.41023  0.51581  Biso   1.000  F 
  B489     1.0000 0.92810  0.36740  0.50000  Biso   1.000  B 
  B490     1.0000 0.88280  0.38280  0.50000  Biso   1.000  B 
  B491     1.0000 0.86740  0.42810  0.50000  Biso   1.000  B 
  B492     1.0000 0.84350  0.34350  0.50000  Biso   1.000  B 
  B493     1.0000 0.85530  0.29420  0.50000  Biso   1.000  B 
  B494     1.0000 0.79420  0.35530  0.50000  Biso   1.000  B 
  B495     1.0000 0.82050  0.25800  0.50000  Biso   1.000  B 
  B496     1.0000 0.88860  0.28510  0.50000  Biso   1.000  B 
  B497     1.0000 0.75800  0.32050  0.50000  Biso   1.000  B 
  C37      1.0000 0.77432  0.41120  0.48545  Biso   1.000  C 
  B498     1.0000 0.76930  0.26930  0.50000  Biso   1.000  B 
  B499     1.0000 0.73070  0.23070  0.50000  Biso   1.000  B 
  B500     1.0000 0.83050  0.22490  0.50000  Biso   1.000  B 
  B501     1.0000 0.74200  0.17950  0.50000  Biso   1.000  B 
  B502     1.0000 0.72490  0.33050  0.50000  Biso   1.000  B 
  B503     1.0000 0.67950  0.24200  0.50000  Biso   1.000  B 
  B504     1.0000 0.70580  0.14470  0.50000  Biso   1.000  B 
  B505     1.0000 0.77510  0.16950  0.50000  Biso   1.000  B 
  B506     1.0000 0.64470  0.20580  0.50000  Biso   1.000  B 
  B507     1.0000 0.66950  0.27510  0.50000  Biso   1.000  B 
  B508     1.0000 0.65650  0.15650  0.50000  Biso   1.000  B 
  B509     1.0000 0.61720  0.11720  0.50000  Biso   1.000  B 
  C38      1.0000 0.72595  0.08718  0.49996  Biso   1.000  C 
  B510     1.0000 0.61140  0.21490  0.50000  Biso   1.000  B 
  B511     1.0000 0.63260  0.07190  0.50000  Biso   1.000  B 
  B512     1.0000 0.57190  0.13260  0.50000  Biso   1.000  B 
  F109     1.0000 0.77974  0.08528  0.49993  Biso   1.000  F 
  F110     1.0000 0.71117  0.06054  0.45728  Biso   1.000  F 
  F111     1.0000 0.71121  0.06049  0.54262  Biso   1.000  F 
  F112     1.0000 0.79249  0.42131  0.43975  Biso   1.000  F 
  F113     1.0000 0.78561  0.44801  0.51945  Biso   1.000  F 
  F114     1.0000 0.72280  0.41023  0.48419  Biso   1.000  F 
  B513     1.0000 0.92810  0.63260  0.50000  Biso   1.000  B 
  B514     1.0000 0.88280  0.61720  0.50000  Biso   1.000  B 
  B515     1.0000 0.86740  0.57190  0.50000  Biso   1.000  B 
  B516     1.0000 0.84350  0.65650  0.50000  Biso   1.000  B 
  B517     1.0000 0.85530  0.70580  0.50000  Biso   1.000  B 
  B518     1.0000 0.79420  0.64470  0.50000  Biso   1.000  B 
  B519     1.0000 0.82050  0.74200  0.50000  Biso   1.000  B 
  B520     1.0000 0.88860  0.71490  0.50000  Biso   1.000  B 
  B521     1.0000 0.75800  0.67950  0.50000  Biso   1.000  B 
  C39      1.0000 0.77432  0.58880  0.51455  Biso   1.000  C 
  B522     1.0000 0.76930  0.73070  0.50000  Biso   1.000  B 
  B523     1.0000 0.73070  0.76930  0.50000  Biso   1.000  B 
  B524     1.0000 0.83050  0.77510  0.50000  Biso   1.000  B 
  B525     1.0000 0.74200  0.82050  0.50000  Biso   1.000  B 
  B526     1.0000 0.72490  0.66950  0.50000  Biso   1.000  B 
  B527     1.0000 0.67950  0.75800  0.50000  Biso   1.000  B 
  B528     1.0000 0.70580  0.85530  0.50000  Biso   1.000  B 
  B529     1.0000 0.77510  0.83050  0.50000  Biso   1.000  B 
  B530     1.0000 0.64470  0.79420  0.50000  Biso   1.000  B 
  B531     1.0000 0.66950  0.72490  0.50000  Biso   1.000  B 
  B532     1.0000 0.65650  0.84350  0.50000  Biso   1.000  B 
  B533     1.0000 0.61720  0.88280  0.50000  Biso   1.000  B 
  C40      1.0000 0.72595  0.91282  0.50004  Biso   1.000  C 
  B534     1.0000 0.61140  0.78510  0.50000  Biso   1.000  B 
  B535     1.0000 0.63260  0.92810  0.50000  Biso   1.000  B 
  B536     1.0000 0.57190  0.86740  0.50000  Biso   1.000  B 
  F115     1.0000 0.77974  0.91472  0.50007  Biso   1.000  F 
  F116     1.0000 0.71117  0.93946  0.54272  Biso   1.000  F 
  F117     1.0000 0.71121  0.93951  0.45738  Biso   1.000  F 
  F118     1.0000 0.79249  0.57869  0.56025  Biso   1.000  F 
  F119     1.0000 0.78561  0.55199  0.48055  Biso   1.000  F 
  F120     1.0000 0.72280  0.58977  0.51581  Biso   1.000  F 
  B537     1.0000 0.50000  0.07190  0.63260  Biso   1.000  B 
  B538     1.0000 0.50000  0.11720  0.61720  Biso   1.000  B 
  B539     1.0000 0.50000  0.13260  0.57190  Biso   1.000  B 
  B540     1.0000 0.50000  0.15650  0.65650  Biso   1.000  B 
  B541     1.0000 0.50000  0.14470  0.70580  Biso   1.000  B 
  B542     1.0000 0.50000  0.20580  0.64470  Biso   1.000  B 
  B543     1.0000 0.50000  0.17950  0.74200  Biso   1.000  B 
  B544     1.0000 0.50000  0.11140  0.71490  Biso   1.000  B 
  B545     1.0000 0.50000  0.24200  0.67950  Biso   1.000  B 
  C41      1.0000 0.48547  0.22571  0.58880  Biso   1.000  C 
  B546     1.0000 0.50000  0.23070  0.73070  Biso   1.000  B 
  B547     1.0000 0.50000  0.26930  0.76930  Biso   1.000  B 
  B548     1.0000 0.50000  0.16950  0.77510  Biso   1.000  B 
  B549     1.0000 0.50000  0.25800  0.82050  Biso   1.000  B 
  B550     1.0000 0.50000  0.27510  0.66950  Biso   1.000  B 
  B551     1.0000 0.50000  0.32050  0.75800  Biso   1.000  B 
  B552     1.0000 0.50000  0.29420  0.85530  Biso   1.000  B 
  B553     1.0000 0.50000  0.22490  0.83050  Biso   1.000  B 
  B554     1.0000 0.50000  0.35530  0.79420  Biso   1.000  B 
  B555     1.0000 0.50000  0.33050  0.72490  Biso   1.000  B 
  B556     1.0000 0.50000  0.34350  0.84350  Biso   1.000  B 
  B557     1.0000 0.50000  0.38280  0.88280  Biso   1.000  B 
  C42      1.0000 0.49999  0.27405  0.91282  Biso   1.000  C 
  B558     1.0000 0.50000  0.38860  0.78510  Biso   1.000  B 
  B559     1.0000 0.50000  0.36740  0.92810  Biso   1.000  B 
  B560     1.0000 0.50000  0.42810  0.86740  Biso   1.000  B 
  F121     1.0000 0.49999  0.22026  0.91472  Biso   1.000  F 
  F122     1.0000 0.45732  0.28882  0.93948  Biso   1.000  F 
  F123     1.0000 0.54266  0.28881  0.93949  Biso   1.000  F 
  F124     1.0000 0.43973  0.20762  0.57869  Biso   1.000  F 
  F125     1.0000 0.51945  0.21440  0.55199  Biso   1.000  F 
  F126     1.0000 0.48427  0.27723  0.58978  Biso   1.000  F 
  B561     1.0000 0.50000  0.07190  0.36740  Biso   1.000  B 
  B562     1.0000 0.50000  0.11720  0.38280  Biso   1.000  B 
  B563     1.0000 0.50000  0.13260  0.42810  Biso   1.000  B 
  B564     1.0000 0.50000  0.15650  0.34350  Biso   1.000  B 
  B565     1.0000 0.50000  0.14470  0.29420  Biso   1.000  B 
  B566     1.0000 0.50000  0.20580  0.35530  Biso   1.000  B 
  B567     1.0000 0.50000  0.17950  0.25800  Biso   1.000  B 
  B568     1.0000 0.50000  0.11140  0.28510  Biso   1.000  B 
  B569     1.0000 0.50000  0.24200  0.32050  Biso   1.000  B 
  C43      1.0000 0.51453  0.22571  0.41120  Biso   1.000  C 
  B570     1.0000 0.50000  0.23070  0.26930  Biso   1.000  B 
  B571     1.0000 0.50000  0.26930  0.23070  Biso   1.000  B 
  B572     1.0000 0.50000  0.16950  0.22490  Biso   1.000  B 
  B573     1.0000 0.50000  0.25800  0.17950  Biso   1.000  B 
  B574     1.0000 0.50000  0.27510  0.33050  Biso   1.000  B 
  B575     1.0000 0.50000  0.32050  0.24200  Biso   1.000  B 
  B576     1.0000 0.50000  0.29420  0.14470  Biso   1.000  B 
  B577     1.0000 0.50000  0.22490  0.16950  Biso   1.000  B 
  B578     1.0000 0.50000  0.35530  0.20580  Biso   1.000  B 
  B579     1.0000 0.50000  0.33050  0.27510  Biso   1.000  B 
  B580     1.0000 0.50000  0.34350  0.15650  Biso   1.000  B 
  B581     1.0000 0.50000  0.38280  0.11720  Biso   1.000  B 
  C44      1.0000 0.50001  0.27405  0.08718  Biso   1.000  C 
  B582     1.0000 0.50000  0.38860  0.21490  Biso   1.000  B 
  B583     1.0000 0.50000  0.36740  0.07190  Biso   1.000  B 
  B584     1.0000 0.50000  0.42810  0.13260  Biso   1.000  B 
  F127     1.0000 0.50001  0.22026  0.08528  Biso   1.000  F 
  F128     1.0000 0.54268  0.28882  0.06052  Biso   1.000  F 
  F129     1.0000 0.45734  0.28881  0.06051  Biso   1.000  F 
  F130     1.0000 0.56027  0.20762  0.42131  Biso   1.000  F 
  F131     1.0000 0.48055  0.21440  0.44801  Biso   1.000  F 
  F132     1.0000 0.51573  0.27723  0.41022  Biso   1.000  F 
  B585     1.0000 0.50000  0.92810  0.36740  Biso   1.000  B 
  B586     1.0000 0.50000  0.88280  0.38280  Biso   1.000  B 
  B587     1.0000 0.50000  0.86740  0.42810  Biso   1.000  B 
  B588     1.0000 0.50000  0.84350  0.34350  Biso   1.000  B 
  B589     1.0000 0.50000  0.85530  0.29420  Biso   1.000  B 
  B590     1.0000 0.50000  0.79420  0.35530  Biso   1.000  B 
  B591     1.0000 0.50000  0.82050  0.25800  Biso   1.000  B 
  B592     1.0000 0.50000  0.88860  0.28510  Biso   1.000  B 
  B593     1.0000 0.50000  0.75800  0.32050  Biso   1.000  B 
  C45      1.0000 0.48547  0.77429  0.41120  Biso   1.000  C 
  B594     1.0000 0.50000  0.76930  0.26930  Biso   1.000  B 
  B595     1.0000 0.50000  0.73070  0.23070  Biso   1.000  B 
  B596     1.0000 0.50000  0.83050  0.22490  Biso   1.000  B 
  B597     1.0000 0.50000  0.74200  0.17950  Biso   1.000  B 
  B598     1.0000 0.50000  0.72490  0.33050  Biso   1.000  B 
  B599     1.0000 0.50000  0.67950  0.24200  Biso   1.000  B 
  B600     1.0000 0.50000  0.70580  0.14470  Biso   1.000  B 
  B601     1.0000 0.50000  0.77510  0.16950  Biso   1.000  B 
  B602     1.0000 0.50000  0.64470  0.20580  Biso   1.000  B 
  B603     1.0000 0.50000  0.66950  0.27510  Biso   1.000  B 
  B604     1.0000 0.50000  0.65650  0.15650  Biso   1.000  B 
  B605     1.0000 0.50000  0.61720  0.11720  Biso   1.000  B 
  C46      1.0000 0.49999  0.72595  0.08718  Biso   1.000  C 
  B606     1.0000 0.50000  0.61140  0.21490  Biso   1.000  B 
  B607     1.0000 0.50000  0.63260  0.07190  Biso   1.000  B 
  B608     1.0000 0.50000  0.57190  0.13260  Biso   1.000  B 
  F133     1.0000 0.49999  0.77974  0.08528  Biso   1.000  F 
  F134     1.0000 0.45732  0.71118  0.06052  Biso   1.000  F 
  F135     1.0000 0.54266  0.71119  0.06051  Biso   1.000  F 
  F136     1.0000 0.43973  0.79238  0.42131  Biso   1.000  F 
  F137     1.0000 0.51945  0.78560  0.44801  Biso   1.000  F 
  F138     1.0000 0.48427  0.72277  0.41022  Biso   1.000  F 
  B609     1.0000 0.50000  0.92810  0.63260  Biso   1.000  B 
  B610     1.0000 0.50000  0.88280  0.61720  Biso   1.000  B 
  B611     1.0000 0.50000  0.86740  0.57190  Biso   1.000  B 
  B612     1.0000 0.50000  0.84350  0.65650  Biso   1.000  B 
  B613     1.0000 0.50000  0.85530  0.70580  Biso   1.000  B 
  B614     1.0000 0.50000  0.79420  0.64470  Biso   1.000  B 
  B615     1.0000 0.50000  0.82050  0.74200  Biso   1.000  B 
  B616     1.0000 0.50000  0.88860  0.71490  Biso   1.000  B 
  B617     1.0000 0.50000  0.75800  0.67950  Biso   1.000  B 
  C47      1.0000 0.51453  0.77429  0.58880  Biso   1.000  C 
  B618     1.0000 0.50000  0.76930  0.73070  Biso   1.000  B 
  B619     1.0000 0.50000  0.73070  0.76930  Biso   1.000  B 
  B620     1.0000 0.50000  0.83050  0.77510  Biso   1.000  B 
  B621     1.0000 0.50000  0.74200  0.82050  Biso   1.000  B 
  B622     1.0000 0.50000  0.72490  0.66950  Biso   1.000  B 
  B623     1.0000 0.50000  0.67950  0.75800  Biso   1.000  B 
  B624     1.0000 0.50000  0.70580  0.85530  Biso   1.000  B 
  B625     1.0000 0.50000  0.77510  0.83050  Biso   1.000  B 
  B626     1.0000 0.50000  0.64470  0.79420  Biso   1.000  B 
  B627     1.0000 0.50000  0.66950  0.72490  Biso   1.000  B 
  B628     1.0000 0.50000  0.65650  0.84350  Biso   1.000  B 
  B629     1.0000 0.50000  0.61720  0.88280  Biso   1.000  B 
  C48      1.0000 0.50001  0.72595  0.91282  Biso   1.000  C 
  B630     1.0000 0.50000  0.61140  0.78510  Biso   1.000  B 
  B631     1.0000 0.50000  0.63260  0.92810  Biso   1.000  B 
  B632     1.0000 0.50000  0.57190  0.86740  Biso   1.000  B 
  F139     1.0000 0.50001  0.77974  0.91472  Biso   1.000  F 
  F140     1.0000 0.54268  0.71118  0.93948  Biso   1.000  F 
  F141     1.0000 0.45734  0.71119  0.93949  Biso   1.000  F 
  F142     1.0000 0.56027  0.79238  0.57869  Biso   1.000  F 
  F143     1.0000 0.48055  0.78560  0.55199  Biso   1.000  F 
  F144     1.0000 0.51573  0.72277  0.58978  Biso   1.000  F 
