data_image0
_cell_length_a       20.7004
_cell_length_b       20.7004
_cell_length_c       20.7004
_cell_angle_alpha    90
_cell_angle_beta     90
_cell_angle_gamma    90

_symmetry_space_group_name_H-M    "P 1"
_symmetry_int_tables_number       1

loop_
  _symmetry_equiv_pos_as_xyz
  'x, y, z'

loop_
  _atom_site_label
  _atom_site_occupancy
  _atom_site_fract_x
  _atom_site_fract_y
  _atom_site_fract_z
  _atom_site_thermal_displace_type
  _atom_site_B_iso_or_equiv
  _atom_site_type_symbol
  B1       1.0000 0.11989  0.00000  0.00000  Biso   1.000  B 
  B2       1.0000 0.11989  0.50000  0.50000  Biso   1.000  B 
  B3       1.0000 0.61989  0.00000  0.50000  Biso   1.000  B 
  B4       1.0000 0.61989  0.50000  0.00000  Biso   1.000  B 
  B5       1.0000 0.88011  0.00000  0.00000  Biso   1.000  B 
  B6       1.0000 0.88011  0.50000  0.50000  Biso   1.000  B 
  B7       1.0000 0.38011  0.00000  0.50000  Biso   1.000  B 
  B8       1.0000 0.38011  0.50000  0.00000  Biso   1.000  B 
  B9       1.0000 0.00000  0.11989  0.00000  Biso   1.000  B 
  B10      1.0000 0.00000  0.61989  0.50000  Biso   1.000  B 
  B11      1.0000 0.50000  0.11989  0.50000  Biso   1.000  B 
  B12      1.0000 0.50000  0.61989  0.00000  Biso   1.000  B 
  B13      1.0000 0.00000  0.88011  0.00000  Biso   1.000  B 
  B14      1.0000 0.00000  0.38011  0.50000  Biso   1.000  B 
  B15      1.0000 0.50000  0.88011  0.50000  Biso   1.000  B 
  B16      1.0000 0.50000  0.38011  0.00000  Biso   1.000  B 
  B17      1.0000 0.00000  0.00000  0.11989  Biso   1.000  B 
  B18      1.0000 0.00000  0.50000  0.61989  Biso   1.000  B 
  B19      1.0000 0.50000  0.00000  0.61989  Biso   1.000  B 
  B20      1.0000 0.50000  0.50000  0.11989  Biso   1.000  B 
  B21      1.0000 0.00000  0.00000  0.88011  Biso   1.000  B 
  B22      1.0000 0.00000  0.50000  0.38011  Biso   1.000  B 
  B23      1.0000 0.50000  0.00000  0.38011  Biso   1.000  B 
  B24      1.0000 0.50000  0.50000  0.88011  Biso   1.000  B 
  B25      1.0000 0.05610  0.44390  0.44390  Biso   1.000  B 
  B26      1.0000 0.55610  0.94390  0.44390  Biso   1.000  B 
  B27      1.0000 0.55610  0.44390  0.94390  Biso   1.000  B 
  B28      1.0000 0.44390  0.05610  0.44390  Biso   1.000  B 
  B29      1.0000 0.44390  0.55610  0.94390  Biso   1.000  B 
  B30      1.0000 0.94390  0.94390  0.05610  Biso   1.000  B 
  B31      1.0000 0.94390  0.44390  0.55610  Biso   1.000  B 
  B32      1.0000 0.05610  0.05610  0.05610  Biso   1.000  B 
  B33      1.0000 0.55610  0.55610  0.05610  Biso   1.000  B 
  B34      1.0000 0.94390  0.05610  0.05610  Biso   1.000  B 
  B35      1.0000 0.94390  0.55610  0.55610  Biso   1.000  B 
  B36      1.0000 0.44390  0.05610  0.55610  Biso   1.000  B 
  B37      1.0000 0.44390  0.55610  0.05610  Biso   1.000  B 
  B38      1.0000 0.05610  0.94390  0.05610  Biso   1.000  B 
  B39      1.0000 0.05610  0.44390  0.55610  Biso   1.000  B 
  B40      1.0000 0.55610  0.94390  0.55610  Biso   1.000  B 
  B41      1.0000 0.55610  0.44390  0.05610  Biso   1.000  B 
  B42      1.0000 0.94390  0.94390  0.94390  Biso   1.000  B 
  B43      1.0000 0.94390  0.44390  0.44390  Biso   1.000  B 
  B44      1.0000 0.44390  0.94390  0.44390  Biso   1.000  B 
  B45      1.0000 0.44390  0.44390  0.94390  Biso   1.000  B 
  B46      1.0000 0.05610  0.05610  0.94390  Biso   1.000  B 
  B47      1.0000 0.05610  0.55610  0.44390  Biso   1.000  B 
  B48      1.0000 0.55610  0.05610  0.44390  Biso   1.000  B 
  B49      1.0000 0.15360  0.00000  0.84640  Biso   1.000  B 
  B50      1.0000 0.17046  0.00000  0.90471  Biso   1.000  B 
  B51      1.0000 0.09529  0.00000  0.82954  Biso   1.000  B 
  B52      1.0000 0.20500  0.00000  0.79500  Biso   1.000  B 
  B53      1.0000 0.18437  0.00000  0.73249  Biso   1.000  B 
  N1       1.0000 0.11811  0.97225  0.71708  Biso   1.000  N 
  B54      1.0000 0.22128  0.00000  0.63051  Biso   1.000  B 
  B55      1.0000 0.23249  0.00000  0.68442  Biso   1.000  B 
  B56      1.0000 0.29500  0.00000  0.70500  Biso   1.000  B 
  B57      1.0000 0.31558  0.00000  0.76751  Biso   1.000  B 
  B58      1.0000 0.26751  0.00000  0.81563  Biso   1.000  B 
  B59      1.0000 0.27872  0.00000  0.86954  Biso   1.000  B 
  B60      1.0000 0.36949  0.00000  0.77872  Biso   1.000  B 
  B61      1.0000 0.40470  0.00000  0.67046  Biso   1.000  B 
  B62      1.0000 0.34640  0.00000  0.65360  Biso   1.000  B 
  B63      1.0000 0.32954  0.00000  0.59529  Biso   1.000  B 
  H1       1.0000 0.10111  0.99925  0.67771  Biso   1.000  H 
  C1       1.0000 0.12738  0.90970  0.68795  Biso   1.000  C 
  H2       1.0000 0.16813  0.91238  0.65596  Biso   1.000  H 
  H3       1.0000 0.08538  0.89393  0.65303  Biso   1.000  H 
  C2       1.0000 0.13844  0.85612  0.74010  Biso   1.000  C 
  H4       1.0000 0.11030  0.87506  0.78309  Biso   1.000  H 
  C3       1.0000 0.20904  0.84405  0.76542  Biso   1.000  C 
  H5       1.0000 0.11953  0.81041  0.72349  Biso   1.000  H 
  H6       1.0000 0.21884  0.86232  0.81471  Biso   1.000  H 
  H7       1.0000 0.24368  0.86615  0.73272  Biso   1.000  H 
  H8       1.0000 0.21921  0.79031  0.76606  Biso   1.000  H 
  B64      1.0000 0.15360  0.50000  0.34640  Biso   1.000  B 
  B65      1.0000 0.17046  0.50000  0.40471  Biso   1.000  B 
  B66      1.0000 0.09529  0.50000  0.32954  Biso   1.000  B 
  B67      1.0000 0.20500  0.50000  0.29500  Biso   1.000  B 
  B68      1.0000 0.18437  0.50000  0.23249  Biso   1.000  B 
  N2       1.0000 0.11819  0.47650  0.21716  Biso   1.000  N 
  B69      1.0000 0.22128  0.50000  0.13051  Biso   1.000  B 
  B70      1.0000 0.23249  0.50000  0.18442  Biso   1.000  B 
  B71      1.0000 0.29500  0.50000  0.20500  Biso   1.000  B 
  B72      1.0000 0.31558  0.50000  0.26751  Biso   1.000  B 
  B73      1.0000 0.26751  0.50000  0.31563  Biso   1.000  B 
  B74      1.0000 0.27872  0.50000  0.36954  Biso   1.000  B 
  B75      1.0000 0.36949  0.50000  0.27872  Biso   1.000  B 
  B76      1.0000 0.40470  0.50000  0.17046  Biso   1.000  B 
  B77      1.0000 0.34640  0.50000  0.15360  Biso   1.000  B 
  B78      1.0000 0.32954  0.50000  0.09529  Biso   1.000  B 
  H9       1.0000 0.11685  0.42704  0.22277  Biso   1.000  H 
  C4       1.0000 0.08359  0.50050  0.16113  Biso   1.000  C 
  H10      1.0000 0.09349  0.55205  0.15121  Biso   1.000  H 
  H11      1.0000 0.03251  0.49668  0.17524  Biso   1.000  H 
  C5       1.0000 0.09586  0.45954  0.09901  Biso   1.000  C 
  H12      1.0000 0.05708  0.46984  0.06478  Biso   1.000  H 
  C6       1.0000 0.10260  0.38583  0.11042  Biso   1.000  C 
  H13      1.0000 0.14238  0.47657  0.07583  Biso   1.000  H 
  H14      1.0000 0.15059  0.37555  0.13040  Biso   1.000  H 
  H15      1.0000 0.09334  0.35732  0.06619  Biso   1.000  H 
  H16      1.0000 0.06936  0.37255  0.14841  Biso   1.000  H 
  B79      1.0000 0.65360  0.00000  0.34640  Biso   1.000  B 
  B80      1.0000 0.67046  0.00000  0.40471  Biso   1.000  B 
  B81      1.0000 0.59529  0.00000  0.32954  Biso   1.000  B 
  B82      1.0000 0.70500  0.00000  0.29500  Biso   1.000  B 
  B83      1.0000 0.68437  0.00000  0.23249  Biso   1.000  B 
  N3       1.0000 0.62046  0.96582  0.21308  Biso   1.000  N 
  B84      1.0000 0.72128  0.00000  0.13051  Biso   1.000  B 
  B85      1.0000 0.73248  0.00000  0.18442  Biso   1.000  B 
  B86      1.0000 0.79499  0.00000  0.20500  Biso   1.000  B 
  B87      1.0000 0.81558  0.00000  0.26751  Biso   1.000  B 
  B88      1.0000 0.76751  0.00000  0.31563  Biso   1.000  B 
  B89      1.0000 0.77872  0.00000  0.36954  Biso   1.000  B 
  B90      1.0000 0.86949  0.00000  0.27872  Biso   1.000  B 
  B91      1.0000 0.90470  0.00000  0.17046  Biso   1.000  B 
  B92      1.0000 0.84639  0.00000  0.15360  Biso   1.000  B 
  B93      1.0000 0.82953  0.00000  0.09529  Biso   1.000  B 
  H17      1.0000 0.60846  0.93182  0.24904  Biso   1.000  H 
  C7       1.0000 0.62400  0.92501  0.15338  Biso   1.000  C 
  H18      1.0000 0.64257  0.95066  0.11044  Biso   1.000  H 
  H19      1.0000 0.57303  0.91531  0.13932  Biso   1.000  H 
  C8       1.0000 0.65072  0.85679  0.16092  Biso   1.000  C 
  H20      1.0000 0.63392  0.83822  0.20791  Biso   1.000  H 
  C9       1.0000 0.72262  0.85371  0.16596  Biso   1.000  C 
  H21      1.0000 0.63243  0.82328  0.12247  Biso   1.000  H 
  H22      1.0000 0.74481  0.88019  0.12310  Biso   1.000  H 
  H23      1.0000 0.73927  0.80417  0.15970  Biso   1.000  H 
  H24      1.0000 0.73823  0.87500  0.21252  Biso   1.000  H 
  B94      1.0000 0.65360  0.50000  0.84640  Biso   1.000  B 
  B95      1.0000 0.67046  0.50000  0.90471  Biso   1.000  B 
  B96      1.0000 0.59529  0.50000  0.82954  Biso   1.000  B 
  B97      1.0000 0.70500  0.50000  0.79500  Biso   1.000  B 
  B98      1.0000 0.68437  0.50000  0.73249  Biso   1.000  B 
  N4       1.0000 0.62089  0.46425  0.71711  Biso   1.000  N 
  B99      1.0000 0.72128  0.50000  0.63051  Biso   1.000  B 
  B100     1.0000 0.73248  0.50000  0.68442  Biso   1.000  B 
  B101     1.0000 0.79499  0.50000  0.70500  Biso   1.000  B 
  B102     1.0000 0.81558  0.50000  0.76751  Biso   1.000  B 
  B103     1.0000 0.76751  0.50000  0.81563  Biso   1.000  B 
  B104     1.0000 0.77872  0.50000  0.86954  Biso   1.000  B 
  B105     1.0000 0.86949  0.50000  0.77872  Biso   1.000  B 
  B106     1.0000 0.90470  0.50000  0.67046  Biso   1.000  B 
  B107     1.0000 0.84639  0.50000  0.65360  Biso   1.000  B 
  B108     1.0000 0.82953  0.50000  0.59529  Biso   1.000  B 
  H25      1.0000 0.61424  0.42674  0.75168  Biso   1.000  H 
  C10      1.0000 0.61954  0.42861  0.65555  Biso   1.000  C 
  H26      1.0000 0.63591  0.45446  0.61212  Biso   1.000  H 
  H27      1.0000 0.56654  0.42135  0.64557  Biso   1.000  H 
  C11      1.0000 0.64680  0.35694  0.66092  Biso   1.000  C 
  H28      1.0000 0.62682  0.33078  0.70482  Biso   1.000  H 
  C12      1.0000 0.72011  0.34572  0.65666  Biso   1.000  C 
  H29      1.0000 0.62832  0.33117  0.61781  Biso   1.000  H 
  H30      1.0000 0.74191  0.37242  0.61688  Biso   1.000  H 
  H31      1.0000 0.73330  0.29401  0.64872  Biso   1.000  H 
  H32      1.0000 0.73932  0.36025  0.70344  Biso   1.000  H 
  B109     1.0000 0.84640  0.00000  0.84640  Biso   1.000  B 
  B110     1.0000 0.82954  0.00000  0.90471  Biso   1.000  B 
  B111     1.0000 0.90471  0.00000  0.82954  Biso   1.000  B 
  B112     1.0000 0.79500  0.00000  0.79500  Biso   1.000  B 
  B113     1.0000 0.81563  0.00000  0.73249  Biso   1.000  B 
  N5       1.0000 0.88192  0.97479  0.71249  Biso   1.000  N 
  B114     1.0000 0.77872  0.00000  0.63051  Biso   1.000  B 
  B115     1.0000 0.76752  0.00000  0.68442  Biso   1.000  B 
  B116     1.0000 0.70501  0.00000  0.70500  Biso   1.000  B 
  B117     1.0000 0.68442  0.00000  0.76751  Biso   1.000  B 
  B118     1.0000 0.73249  0.00000  0.81563  Biso   1.000  B 
  B119     1.0000 0.72128  0.00000  0.86954  Biso   1.000  B 
  B120     1.0000 0.63051  0.00000  0.77872  Biso   1.000  B 
  B121     1.0000 0.59530  0.00000  0.67046  Biso   1.000  B 
  B122     1.0000 0.65361  0.00000  0.65360  Biso   1.000  B 
  B123     1.0000 0.67047  0.00000  0.59529  Biso   1.000  B 
  H33      1.0000 0.90461  0.01440  0.69105  Biso   1.000  H 
  C13      1.0000 0.87929  0.91570  0.66921  Biso   1.000  C 
  H34      1.0000 0.83120  0.90855  0.64514  Biso   1.000  H 
  H35      1.0000 0.88896  0.87147  0.69826  Biso   1.000  H 
  C14      1.0000 0.93037  0.91921  0.61578  Biso   1.000  C 
  H36      1.0000 0.91910  0.96381  0.58730  Biso   1.000  H 
  C15      1.0000 0.92590  0.86516  0.56810  Biso   1.000  C 
  H37      1.0000 0.98056  0.92463  0.63395  Biso   1.000  H 
  H38      1.0000 0.89940  0.88182  0.52268  Biso   1.000  H 
  H39      1.0000 0.90153  0.82247  0.58873  Biso   1.000  H 
  H40      1.0000 0.97683  0.85103  0.55408  Biso   1.000  H 
  B124     1.0000 0.84640  0.50000  0.34640  Biso   1.000  B 
  B125     1.0000 0.82954  0.50000  0.40471  Biso   1.000  B 
  B126     1.0000 0.90471  0.50000  0.32954  Biso   1.000  B 
  B127     1.0000 0.79500  0.50000  0.29500  Biso   1.000  B 
  B128     1.0000 0.81563  0.50000  0.23249  Biso   1.000  B 
  N6       1.0000 0.88314  0.47961  0.21487  Biso   1.000  N 
  B129     1.0000 0.77872  0.50000  0.13051  Biso   1.000  B 
  B130     1.0000 0.76752  0.50000  0.18442  Biso   1.000  B 
  B131     1.0000 0.70501  0.50000  0.20500  Biso   1.000  B 
  B132     1.0000 0.68442  0.50000  0.26751  Biso   1.000  B 
  B133     1.0000 0.73249  0.50000  0.31563  Biso   1.000  B 
  B134     1.0000 0.72128  0.50000  0.36954  Biso   1.000  B 
  B135     1.0000 0.63051  0.50000  0.27872  Biso   1.000  B 
  B136     1.0000 0.59530  0.50000  0.17046  Biso   1.000  B 
  B137     1.0000 0.65361  0.50000  0.15360  Biso   1.000  B 
  B138     1.0000 0.67047  0.50000  0.09529  Biso   1.000  B 
  H41      1.0000 0.90305  0.51491  0.18689  Biso   1.000  H 
  C16      1.0000 0.87962  0.41766  0.18042  Biso   1.000  C 
  H42      1.0000 0.83112  0.40162  0.16282  Biso   1.000  H 
  H43      1.0000 0.89760  0.38208  0.21801  Biso   1.000  H 
  C17      1.0000 0.92298  0.41820  0.11995  Biso   1.000  C 
  H44      1.0000 0.91591  0.46141  0.08752  Biso   1.000  H 
  C18      1.0000 0.91419  0.36047  0.07781  Biso   1.000  C 
  H45      1.0000 0.97311  0.41685  0.13472  Biso   1.000  H 
  H46      1.0000 0.90321  0.31818  0.10747  Biso   1.000  H 
  H47      1.0000 0.95617  0.35133  0.04711  Biso   1.000  H 
  H48      1.0000 0.87565  0.37383  0.04542  Biso   1.000  H 
  B139     1.0000 0.34640  0.00000  0.34640  Biso   1.000  B 
  B140     1.0000 0.32954  0.00000  0.40471  Biso   1.000  B 
  B141     1.0000 0.40471  0.00000  0.32954  Biso   1.000  B 
  B142     1.0000 0.29500  0.00000  0.29500  Biso   1.000  B 
  B143     1.0000 0.31563  0.00000  0.23249  Biso   1.000  B 
  N7       1.0000 0.38537  0.00142  0.21390  Biso   1.000  N 
  B144     1.0000 0.27872  0.00000  0.13051  Biso   1.000  B 
  B145     1.0000 0.26751  0.00000  0.18442  Biso   1.000  B 
  B146     1.0000 0.20500  0.00000  0.20500  Biso   1.000  B 
  B147     1.0000 0.18442  0.00000  0.26751  Biso   1.000  B 
  B148     1.0000 0.23249  0.00000  0.31563  Biso   1.000  B 
  B149     1.0000 0.22128  0.00000  0.36954  Biso   1.000  B 
  B150     1.0000 0.13051  0.00000  0.27872  Biso   1.000  B 
  B151     1.0000 0.09530  0.00000  0.17046  Biso   1.000  B 
  B152     1.0000 0.15360  0.00000  0.15360  Biso   1.000  B 
  B153     1.0000 0.17046  0.00000  0.09529  Biso   1.000  B 
  H49      1.0000 0.39434  0.04721  0.19561  Biso   1.000  H 
  C19      1.0000 0.40535  0.95397  0.16512  Biso   1.000  C 
  H50      1.0000 0.37499  0.90945  0.16431  Biso   1.000  H 
  H51      1.0000 0.45467  0.94118  0.17758  Biso   1.000  H 
  C20      1.0000 0.41098  0.98305  0.09758  Biso   1.000  C 
  H52      1.0000 0.36445  0.00174  0.08060  Biso   1.000  H 
  C21      1.0000 0.43194  0.93443  0.04760  Biso   1.000  C 
  H53      1.0000 0.44602  0.02497  0.09949  Biso   1.000  H 
  H54      1.0000 0.41285  0.88449  0.05882  Biso   1.000  H 
  H55      1.0000 0.48348  0.93545  0.04591  Biso   1.000  H 
  H56      1.0000 0.41524  0.95028  0.00025  Biso   1.000  H 
  B154     1.0000 0.34640  0.50000  0.84640  Biso   1.000  B 
  B155     1.0000 0.32954  0.50000  0.90471  Biso   1.000  B 
  B156     1.0000 0.40471  0.50000  0.82954  Biso   1.000  B 
  B157     1.0000 0.29500  0.50000  0.79500  Biso   1.000  B 
  B158     1.0000 0.31563  0.50000  0.73249  Biso   1.000  B 
  N8       1.0000 0.38635  0.49153  0.71358  Biso   1.000  N 
  B159     1.0000 0.27872  0.50000  0.63051  Biso   1.000  B 
  B160     1.0000 0.26751  0.50000  0.68442  Biso   1.000  B 
  B161     1.0000 0.20500  0.50000  0.70500  Biso   1.000  B 
  B162     1.0000 0.18442  0.50000  0.76751  Biso   1.000  B 
  B163     1.0000 0.23249  0.50000  0.81563  Biso   1.000  B 
  B164     1.0000 0.22128  0.50000  0.86954  Biso   1.000  B 
  B165     1.0000 0.13051  0.50000  0.77872  Biso   1.000  B 
  B166     1.0000 0.09530  0.50000  0.67046  Biso   1.000  B 
  B167     1.0000 0.15360  0.50000  0.65360  Biso   1.000  B 
  B168     1.0000 0.17046  0.50000  0.59529  Biso   1.000  B 
  H57      1.0000 0.40368  0.53659  0.70231  Biso   1.000  H 
  C22      1.0000 0.39486  0.44653  0.65950  Biso   1.000  C 
  H58      1.0000 0.35035  0.41812  0.64715  Biso   1.000  H 
  H59      1.0000 0.43146  0.41187  0.67153  Biso   1.000  H 
  C23      1.0000 0.42144  0.48097  0.59983  Biso   1.000  C 
  H60      1.0000 0.38654  0.51836  0.58381  Biso   1.000  H 
  C24      1.0000 0.43506  0.43427  0.54351  Biso   1.000  C 
  H61      1.0000 0.46642  0.50601  0.61576  Biso   1.000  H 
  H62      1.0000 0.38806  0.41452  0.52640  Biso   1.000  H 
  H63      1.0000 0.46468  0.39392  0.55983  Biso   1.000  H 
  H64      1.0000 0.46011  0.46150  0.50520  Biso   1.000  H 
  B169     1.0000 0.84640  0.15360  0.00000  Biso   1.000  B 
  B170     1.0000 0.90471  0.17046  0.00000  Biso   1.000  B 
  B171     1.0000 0.82954  0.09529  0.00000  Biso   1.000  B 
  B172     1.0000 0.79500  0.20500  0.00000  Biso   1.000  B 
  B173     1.0000 0.73249  0.18437  0.00000  Biso   1.000  B 
  N9       1.0000 0.71236  0.11548  0.99548  Biso   1.000  N 
  B174     1.0000 0.63051  0.22128  0.00000  Biso   1.000  B 
  B175     1.0000 0.68442  0.23249  0.00000  Biso   1.000  B 
  B176     1.0000 0.70500  0.29500  0.00000  Biso   1.000  B 
  B177     1.0000 0.76751  0.31558  0.00000  Biso   1.000  B 
  B178     1.0000 0.81563  0.26751  0.00000  Biso   1.000  B 
  B179     1.0000 0.86954  0.27872  0.00000  Biso   1.000  B 
  B180     1.0000 0.77872  0.36949  0.00000  Biso   1.000  B 
  B181     1.0000 0.67046  0.40470  0.00000  Biso   1.000  B 
  B182     1.0000 0.65360  0.34640  0.00000  Biso   1.000  B 
  B183     1.0000 0.59529  0.32954  0.00000  Biso   1.000  B 
  H65      1.0000 0.71231  0.10420  0.94833  Biso   1.000  H 
  C25      1.0000 0.65059  0.09779  0.03144  Biso   1.000  C 
  H66      1.0000 0.64336  0.12628  0.07664  Biso   1.000  H 
  H67      1.0000 0.65782  0.04857  0.04594  Biso   1.000  H 
  C26      1.0000 0.58806  0.09558  0.98684  Biso   1.000  C 
  H68      1.0000 0.56206  0.05426  0.00194  Biso   1.000  H 
  C27      1.0000 0.60235  0.08337  0.91444  Biso   1.000  C 
  H69      1.0000 0.55645  0.13750  0.99266  Biso   1.000  H 
  H70      1.0000 0.63058  0.12258  0.89054  Biso   1.000  H 
  H71      1.0000 0.55936  0.07553  0.88291  Biso   1.000  H 
  H72      1.0000 0.63230  0.03813  0.91304  Biso   1.000  H 
  B184     1.0000 0.84640  0.65360  0.50000  Biso   1.000  B 
  B185     1.0000 0.90471  0.67046  0.50000  Biso   1.000  B 
  B186     1.0000 0.82954  0.59529  0.50000  Biso   1.000  B 
  B187     1.0000 0.79500  0.70500  0.50000  Biso   1.000  B 
  B188     1.0000 0.73249  0.68437  0.50000  Biso   1.000  B 
  N10      1.0000 0.71676  0.61265  0.49084  Biso   1.000  N 
  B189     1.0000 0.63051  0.72128  0.50000  Biso   1.000  B 
  B190     1.0000 0.68442  0.73248  0.50000  Biso   1.000  B 
  B191     1.0000 0.70500  0.79499  0.50000  Biso   1.000  B 
  B192     1.0000 0.76751  0.81558  0.50000  Biso   1.000  B 
  B193     1.0000 0.81563  0.76751  0.50000  Biso   1.000  B 
  B194     1.0000 0.86954  0.77872  0.50000  Biso   1.000  B 
  B195     1.0000 0.77872  0.86949  0.50000  Biso   1.000  B 
  B196     1.0000 0.67046  0.90470  0.50000  Biso   1.000  B 
  B197     1.0000 0.65360  0.84639  0.50000  Biso   1.000  B 
  B198     1.0000 0.59529  0.82953  0.50000  Biso   1.000  B 
  H73      1.0000 0.72635  0.59495  0.44549  Biso   1.000  H 
  C28      1.0000 0.65509  0.59319  0.51901  Biso   1.000  C 
  H74      1.0000 0.64563  0.61893  0.56755  Biso   1.000  H 
  H75      1.0000 0.65835  0.54216  0.53156  Biso   1.000  H 
  C29      1.0000 0.59496  0.59950  0.47574  Biso   1.000  C 
  H76      1.0000 0.56209  0.55831  0.48222  Biso   1.000  H 
  C30      1.0000 0.60949  0.60508  0.40398  Biso   1.000  C 
  H77      1.0000 0.56838  0.64240  0.48947  Biso   1.000  H 
  H78      1.0000 0.63979  0.64900  0.39528  Biso   1.000  H 
  H79      1.0000 0.56902  0.60600  0.37039  Biso   1.000  H 
  H80      1.0000 0.63903  0.56255  0.39190  Biso   1.000  H 
  B199     1.0000 0.34640  0.15360  0.50000  Biso   1.000  B 
  B200     1.0000 0.40471  0.17046  0.50000  Biso   1.000  B 
  B201     1.0000 0.32954  0.09529  0.50000  Biso   1.000  B 
  B202     1.0000 0.29500  0.20500  0.50000  Biso   1.000  B 
  B203     1.0000 0.23249  0.18437  0.50000  Biso   1.000  B 
  N11      1.0000 0.21457  0.11875  0.47078  Biso   1.000  N 
  B204     1.0000 0.13051  0.22128  0.50000  Biso   1.000  B 
  B205     1.0000 0.18442  0.23249  0.50000  Biso   1.000  B 
  B206     1.0000 0.20500  0.29500  0.50000  Biso   1.000  B 
  B207     1.0000 0.26751  0.31558  0.50000  Biso   1.000  B 
  B208     1.0000 0.31563  0.26751  0.50000  Biso   1.000  B 
  B209     1.0000 0.36954  0.27872  0.50000  Biso   1.000  B 
  B210     1.0000 0.27872  0.36949  0.50000  Biso   1.000  B 
  B211     1.0000 0.17046  0.40470  0.50000  Biso   1.000  B 
  B212     1.0000 0.15360  0.34640  0.50000  Biso   1.000  B 
  B213     1.0000 0.09529  0.32954  0.50000  Biso   1.000  B 
  H81      1.0000 0.24846  0.10935  0.43562  Biso   1.000  H 
  C31      1.0000 0.15067  0.11172  0.43719  Biso   1.000  C 
  H82      1.0000 0.10691  0.12431  0.46839  Biso   1.000  H 
  H83      1.0000 0.14321  0.06027  0.42863  Biso   1.000  H 
  C32      1.0000 0.14192  0.13982  0.37118  Biso   1.000  C 
  H84      1.0000 0.13008  0.10070  0.33715  Biso   1.000  H 
  C33      1.0000 0.19531  0.17938  0.34167  Biso   1.000  C 
  H85      1.0000 0.10107  0.17325  0.37152  Biso   1.000  H 
  H86      1.0000 0.19957  0.22253  0.37052  Biso   1.000  H 
  H87      1.0000 0.17933  0.19476  0.29227  Biso   1.000  H 
  H88      1.0000 0.24251  0.15480  0.33582  Biso   1.000  H 
  B214     1.0000 0.34640  0.65360  0.00000  Biso   1.000  B 
  B215     1.0000 0.40471  0.67046  0.00000  Biso   1.000  B 
  B216     1.0000 0.32954  0.59529  0.00000  Biso   1.000  B 
  B217     1.0000 0.29500  0.70500  0.00000  Biso   1.000  B 
  B218     1.0000 0.23249  0.68437  0.00000  Biso   1.000  B 
  N12      1.0000 0.21132  0.61573  0.97845  Biso   1.000  N 
  B219     1.0000 0.13051  0.72128  0.00000  Biso   1.000  B 
  B220     1.0000 0.18442  0.73248  0.00000  Biso   1.000  B 
  B221     1.0000 0.20500  0.79499  0.00000  Biso   1.000  B 
  B222     1.0000 0.26751  0.81558  0.00000  Biso   1.000  B 
  B223     1.0000 0.31563  0.76751  0.00000  Biso   1.000  B 
  B224     1.0000 0.36954  0.77872  0.00000  Biso   1.000  B 
  B225     1.0000 0.27872  0.86949  0.00000  Biso   1.000  B 
  B226     1.0000 0.17046  0.90470  0.00000  Biso   1.000  B 
  B227     1.0000 0.15360  0.84639  0.00000  Biso   1.000  B 
  B228     1.0000 0.09529  0.82953  0.00000  Biso   1.000  B 
  H89      1.0000 0.23409  0.57153  0.98213  Biso   1.000  H 
  C34      1.0000 0.16108  0.61658  0.92713  Biso   1.000  C 
  H90      1.0000 0.11200  0.62260  0.94722  Biso   1.000  H 
  H91      1.0000 0.16188  0.56891  0.90531  Biso   1.000  H 
  C35      1.0000 0.17588  0.66452  0.87424  Biso   1.000  C 
  H92      1.0000 0.13893  0.65783  0.83618  Biso   1.000  H 
  C36      1.0000 0.24406  0.65723  0.84281  Biso   1.000  C 
  H93      1.0000 0.17257  0.71582  0.88851  Biso   1.000  H 
  H94      1.0000 0.28115  0.63304  0.87307  Biso   1.000  H 
  H95      1.0000 0.26557  0.70381  0.82337  Biso   1.000  H 
  H96      1.0000 0.23703  0.62693  0.79866  Biso   1.000  H 
  B229     1.0000 0.84640  0.84640  0.00000  Biso   1.000  B 
  B230     1.0000 0.90471  0.82954  0.00000  Biso   1.000  B 
  B231     1.0000 0.82954  0.90471  0.00000  Biso   1.000  B 
  B232     1.0000 0.79500  0.79500  0.00000  Biso   1.000  B 
  B233     1.0000 0.73249  0.81563  0.00000  Biso   1.000  B 
  N13      1.0000 0.71416  0.88460  0.98463  Biso   1.000  N 
  B234     1.0000 0.63051  0.77872  0.00000  Biso   1.000  B 
  B235     1.0000 0.68442  0.76752  0.00000  Biso   1.000  B 
  B236     1.0000 0.70500  0.70501  0.00000  Biso   1.000  B 
  B237     1.0000 0.76751  0.68442  0.00000  Biso   1.000  B 
  B238     1.0000 0.81563  0.73249  0.00000  Biso   1.000  B 
  B239     1.0000 0.86954  0.72128  0.00000  Biso   1.000  B 
  B240     1.0000 0.77872  0.63051  0.00000  Biso   1.000  B 
  B241     1.0000 0.67046  0.59530  0.00000  Biso   1.000  B 
  B242     1.0000 0.65360  0.65361  0.00000  Biso   1.000  B 
  B243     1.0000 0.59529  0.67047  0.00000  Biso   1.000  B 
  H97      1.0000 0.70158  0.91064  0.02648  Biso   1.000  H 
  C37      1.0000 0.65672  0.88649  0.94151  Biso   1.000  C 
  H98      1.0000 0.65458  0.84295  0.90977  Biso   1.000  H 
  H99      1.0000 0.66529  0.92916  0.91239  Biso   1.000  H 
  C38      1.0000 0.58876  0.89976  0.97196  Biso   1.000  C 
  H100     1.0000 0.57089  0.85802  0.99922  Biso   1.000  H 
  C39      1.0000 0.53884  0.91528  0.91764  Biso   1.000  C 
  H101     1.0000 0.59418  0.94386  0.00370  Biso   1.000  H 
  H102     1.0000 0.56168  0.93263  0.87215  Biso   1.000  H 
  H103     1.0000 0.50919  0.95426  0.93760  Biso   1.000  H 
  H104     1.0000 0.50857  0.87413  0.90616  Biso   1.000  H 
  B244     1.0000 0.84640  0.34640  0.50000  Biso   1.000  B 
  B245     1.0000 0.90471  0.32954  0.50000  Biso   1.000  B 
  B246     1.0000 0.82954  0.40471  0.50000  Biso   1.000  B 
  B247     1.0000 0.79500  0.29500  0.50000  Biso   1.000  B 
  B248     1.0000 0.73249  0.31563  0.50000  Biso   1.000  B 
  N14      1.0000 0.71182  0.38567  0.48761  Biso   1.000  N 
  B249     1.0000 0.63051  0.27872  0.50000  Biso   1.000  B 
  B250     1.0000 0.68442  0.26751  0.50000  Biso   1.000  B 
  B251     1.0000 0.70500  0.20500  0.50000  Biso   1.000  B 
  B252     1.0000 0.76751  0.18442  0.50000  Biso   1.000  B 
  B253     1.0000 0.81563  0.23249  0.50000  Biso   1.000  B 
  B254     1.0000 0.86954  0.22128  0.50000  Biso   1.000  B 
  B255     1.0000 0.77872  0.13051  0.50000  Biso   1.000  B 
  B256     1.0000 0.67046  0.09530  0.50000  Biso   1.000  B 
  B257     1.0000 0.65360  0.15360  0.50000  Biso   1.000  B 
  B258     1.0000 0.59529  0.17046  0.50000  Biso   1.000  B 
  H105     1.0000 0.69819  0.40661  0.53096  Biso   1.000  H 
  C40      1.0000 0.66115  0.39083  0.43776  Biso   1.000  C 
  H106     1.0000 0.65856  0.34445  0.40816  Biso   1.000  H 
  H107     1.0000 0.67659  0.42738  0.40634  Biso   1.000  H 
  C41      1.0000 0.59415  0.41120  0.46462  Biso   1.000  C 
  H108     1.0000 0.57573  0.37187  0.49633  Biso   1.000  H 
  C42      1.0000 0.54876  0.42629  0.40589  Biso   1.000  C 
  H109     1.0000 0.59958  0.45341  0.49605  Biso   1.000  H 
  H110     1.0000 0.56805  0.40539  0.35940  Biso   1.000  H 
  H111     1.0000 0.54447  0.48088  0.40365  Biso   1.000  H 
  H112     1.0000 0.50057  0.40435  0.41590  Biso   1.000  H 
  B259     1.0000 0.34640  0.84640  0.50000  Biso   1.000  B 
  B260     1.0000 0.40471  0.82954  0.50000  Biso   1.000  B 
  B261     1.0000 0.32954  0.90471  0.50000  Biso   1.000  B 
  B262     1.0000 0.29500  0.79500  0.50000  Biso   1.000  B 
  B263     1.0000 0.23249  0.81563  0.50000  Biso   1.000  B 
  N15      1.0000 0.21631  0.88404  0.51744  Biso   1.000  N 
  B264     1.0000 0.13051  0.77872  0.50000  Biso   1.000  B 
  B265     1.0000 0.18442  0.76752  0.50000  Biso   1.000  B 
  B266     1.0000 0.20500  0.70501  0.50000  Biso   1.000  B 
  B267     1.0000 0.26751  0.68442  0.50000  Biso   1.000  B 
  B268     1.0000 0.31563  0.73249  0.50000  Biso   1.000  B 
  B269     1.0000 0.36954  0.72128  0.50000  Biso   1.000  B 
  B270     1.0000 0.27872  0.63051  0.50000  Biso   1.000  B 
  B271     1.0000 0.17046  0.59530  0.50000  Biso   1.000  B 
  B272     1.0000 0.15360  0.65361  0.50000  Biso   1.000  B 
  B273     1.0000 0.09529  0.67047  0.50000  Biso   1.000  B 
  H113     1.0000 0.20223  0.88173  0.56517  Biso   1.000  H 
  C43      1.0000 0.16903  0.91575  0.47780  Biso   1.000  C 
  H114     1.0000 0.17308  0.89818  0.42784  Biso   1.000  H 
  H115     1.0000 0.18110  0.96708  0.47911  Biso   1.000  H 
  C44      1.0000 0.10096  0.91319  0.50552  Biso   1.000  C 
  H116     1.0000 0.09063  0.86626  0.52825  Biso   1.000  H 
  C45      1.0000 0.05233  0.92398  0.45035  Biso   1.000  C 
  H117     1.0000 0.09434  0.95074  0.54249  Biso   1.000  H 
  H118     1.0000 0.06047  0.88688  0.41255  Biso   1.000  H 
  H119     1.0000 0.05889  0.97152  0.42754  Biso   1.000  H 
  H120     1.0000 0.00090  0.92178  0.46520  Biso   1.000  H 
  B274     1.0000 0.34640  0.34640  0.00000  Biso   1.000  B 
  B275     1.0000 0.40471  0.32954  0.00000  Biso   1.000  B 
  B276     1.0000 0.32954  0.40471  0.00000  Biso   1.000  B 
  B277     1.0000 0.29500  0.29500  0.00000  Biso   1.000  B 
  B278     1.0000 0.23249  0.31563  0.00000  Biso   1.000  B 
  N16      1.0000 0.21302  0.38286  0.98203  Biso   1.000  N 
  B279     1.0000 0.13051  0.27872  0.00000  Biso   1.000  B 
  B280     1.0000 0.18442  0.26751  0.00000  Biso   1.000  B 
  B281     1.0000 0.20500  0.20500  0.00000  Biso   1.000  B 
  B282     1.0000 0.26751  0.18442  0.00000  Biso   1.000  B 
  B283     1.0000 0.31563  0.23249  0.00000  Biso   1.000  B 
  B284     1.0000 0.36954  0.22128  0.00000  Biso   1.000  B 
  B285     1.0000 0.27872  0.13051  0.00000  Biso   1.000  B 
  B286     1.0000 0.17046  0.09530  0.00000  Biso   1.000  B 
  B287     1.0000 0.15360  0.15360  0.00000  Biso   1.000  B 
  B288     1.0000 0.09529  0.17046  0.00000  Biso   1.000  B 
  H121     1.0000 0.18996  0.40293  0.02199  Biso   1.000  H 
  C46      1.0000 0.17108  0.38573  0.92388  Biso   1.000  C 
  H122     1.0000 0.15428  0.33731  0.90989  Biso   1.000  H 
  H123     1.0000 0.20012  0.40043  0.87960  Biso   1.000  H 
  C47      1.0000 0.10854  0.42558  0.93400  Biso   1.000  C 
  H124     1.0000 0.08495  0.40926  0.97904  Biso   1.000  H 
  C48      1.0000 0.05603  0.41787  0.88168  Biso   1.000  C 
  H125     1.0000 0.12193  0.47692  0.93775  Biso   1.000  H 
  H126     1.0000 0.06419  0.37064  0.85812  Biso   1.000  H 
  H127     1.0000 0.05755  0.45705  0.84559  Biso   1.000  H 
  H128     1.0000 0.00592  0.41462  0.90485  Biso   1.000  H 
  B289     1.0000 0.00000  0.84640  0.15360  Biso   1.000  B 
  B290     1.0000 0.00000  0.90471  0.17046  Biso   1.000  B 
  B291     1.0000 0.00000  0.82954  0.09529  Biso   1.000  B 
  B292     1.0000 0.00000  0.79500  0.20500  Biso   1.000  B 
  B293     1.0000 0.00000  0.73249  0.18437  Biso   1.000  B 
  N17      1.0000 0.98339  0.71651  0.11561  Biso   1.000  N 
  B294     1.0000 0.00000  0.63051  0.22128  Biso   1.000  B 
  B295     1.0000 0.00000  0.68442  0.23249  Biso   1.000  B 
  B296     1.0000 0.00000  0.70500  0.29500  Biso   1.000  B 
  B297     1.0000 0.00000  0.76751  0.31558  Biso   1.000  B 
  B298     1.0000 0.00000  0.81563  0.26751  Biso   1.000  B 
  B299     1.0000 0.00000  0.86954  0.27872  Biso   1.000  B 
  B300     1.0000 0.00000  0.77872  0.36949  Biso   1.000  B 
  B301     1.0000 0.00000  0.67046  0.40470  Biso   1.000  B 
  B302     1.0000 0.00000  0.65360  0.34640  Biso   1.000  B 
  B303     1.0000 0.00000  0.59529  0.32954  Biso   1.000  B 
  H129     1.0000 0.93478  0.72449  0.10464  Biso   1.000  H 
  C49      1.0000 0.01196  0.65752  0.09170  Biso   1.000  C 
  H130     1.0000 0.05814  0.64813  0.11617  Biso   1.000  H 
  H131     1.0000 0.02024  0.66365  0.03850  Biso   1.000  H 
  C50      1.0000 0.96818  0.59722  0.09831  Biso   1.000  C 
  H132     1.0000 0.99185  0.56123  0.06715  Biso   1.000  H 
  C51      1.0000 0.90033  0.60910  0.07658  Biso   1.000  C 
  H133     1.0000 0.96867  0.57773  0.14728  Biso   1.000  H 
  H134     1.0000 0.87918  0.64248  0.11058  Biso   1.000  H 
  H135     1.0000 0.87331  0.56147  0.07822  Biso   1.000  H 
  H136     1.0000 0.90119  0.62861  0.02754  Biso   1.000  H 
  B304     1.0000 0.00000  0.34640  0.65360  Biso   1.000  B 
  B305     1.0000 0.00000  0.40471  0.67046  Biso   1.000  B 
  B306     1.0000 0.00000  0.32954  0.59529  Biso   1.000  B 
  B307     1.0000 0.00000  0.29500  0.70500  Biso   1.000  B 
  B308     1.0000 0.00000  0.23249  0.68437  Biso   1.000  B 
  N18      1.0000 0.97617  0.21637  0.61606  Biso   1.000  N 
  B309     1.0000 0.00000  0.13051  0.72128  Biso   1.000  B 
  B310     1.0000 0.00000  0.18442  0.73248  Biso   1.000  B 
  B311     1.0000 0.00000  0.20500  0.79499  Biso   1.000  B 
  B312     1.0000 0.00000  0.26751  0.81558  Biso   1.000  B 
  B313     1.0000 0.00000  0.31563  0.76751  Biso   1.000  B 
  B314     1.0000 0.00000  0.36954  0.77872  Biso   1.000  B 
  B315     1.0000 0.00000  0.27872  0.86949  Biso   1.000  B 
  B316     1.0000 0.00000  0.17046  0.90470  Biso   1.000  B 
  B317     1.0000 0.00000  0.15360  0.84639  Biso   1.000  B 
  B318     1.0000 0.00000  0.09529  0.82953  Biso   1.000  B 
  H137     1.0000 0.92545  0.21425  0.61693  Biso   1.000  H 
  C52      1.0000 0.00586  0.16048  0.58419  Biso   1.000  C 
  H138     1.0000 0.05676  0.15489  0.60230  Biso   1.000  H 
  H139     1.0000 0.00703  0.16758  0.53208  Biso   1.000  H 
  C53      1.0000 0.96653  0.09666  0.59354  Biso   1.000  C 
  H140     1.0000 0.98317  0.06035  0.56041  Biso   1.000  H 
  C54      1.0000 0.89319  0.09882  0.58332  Biso   1.000  C 
  H141     1.0000 0.97324  0.07604  0.64092  Biso   1.000  H 
  H142     1.0000 0.87190  0.12993  0.62491  Biso   1.000  H 
  H143     1.0000 0.86987  0.05080  0.58436  Biso   1.000  H 
  H144     1.0000 0.88327  0.12206  0.53579  Biso   1.000  H 
  B319     1.0000 0.50000  0.84640  0.65360  Biso   1.000  B 
  B320     1.0000 0.50000  0.90471  0.67046  Biso   1.000  B 
  B321     1.0000 0.50000  0.82954  0.59529  Biso   1.000  B 
  B322     1.0000 0.50000  0.79500  0.70500  Biso   1.000  B 
  B323     1.0000 0.50000  0.73249  0.68437  Biso   1.000  B 
  N19      1.0000 0.46948  0.71497  0.61806  Biso   1.000  N 
  B324     1.0000 0.50000  0.63051  0.72128  Biso   1.000  B 
  B325     1.0000 0.50000  0.68442  0.73248  Biso   1.000  B 
  B326     1.0000 0.50000  0.70500  0.79499  Biso   1.000  B 
  B327     1.0000 0.50000  0.76751  0.81558  Biso   1.000  B 
  B328     1.0000 0.50000  0.81563  0.76751  Biso   1.000  B 
  B329     1.0000 0.50000  0.86954  0.77872  Biso   1.000  B 
  B330     1.0000 0.50000  0.77872  0.86949  Biso   1.000  B 
  B331     1.0000 0.50000  0.67046  0.90470  Biso   1.000  B 
  B332     1.0000 0.50000  0.65360  0.84639  Biso   1.000  B 
  B333     1.0000 0.50000  0.59529  0.82953  Biso   1.000  B 
  H145     1.0000 0.43573  0.75049  0.60619  Biso   1.000  H 
  C55      1.0000 0.42549  0.66127  0.62074  Biso   1.000  C 
  H146     1.0000 0.45554  0.61697  0.63004  Biso   1.000  H 
  H147     1.0000 0.40388  0.65350  0.57185  Biso   1.000  H 
  C56      1.0000 0.36939  0.66914  0.67397  Biso   1.000  C 
  H148     1.0000 0.33031  0.63342  0.65925  Biso   1.000  H 
  C57      1.0000 0.33467  0.73647  0.68286  Biso   1.000  C 
  H149     1.0000 0.38402  0.65563  0.72226  Biso   1.000  H 
  H150     1.0000 0.36827  0.77355  0.69976  Biso   1.000  H 
  H151     1.0000 0.29701  0.72812  0.72042  Biso   1.000  H 
  H152     1.0000 0.31048  0.75347  0.63754  Biso   1.000  H 
  B334     1.0000 0.50000  0.34640  0.15360  Biso   1.000  B 
  B335     1.0000 0.50000  0.40471  0.17046  Biso   1.000  B 
  B336     1.0000 0.50000  0.32954  0.09529  Biso   1.000  B 
  B337     1.0000 0.50000  0.29500  0.20500  Biso   1.000  B 
  B338     1.0000 0.50000  0.23249  0.18437  Biso   1.000  B 
  N20      1.0000 0.47031  0.21186  0.11984  Biso   1.000  N 
  B339     1.0000 0.50000  0.13051  0.22128  Biso   1.000  B 
  B340     1.0000 0.50000  0.18442  0.23249  Biso   1.000  B 
  B341     1.0000 0.50000  0.20500  0.29500  Biso   1.000  B 
  B342     1.0000 0.50000  0.26751  0.31558  Biso   1.000  B 
  B343     1.0000 0.50000  0.31563  0.26751  Biso   1.000  B 
  B344     1.0000 0.50000  0.36954  0.27872  Biso   1.000  B 
  B345     1.0000 0.50000  0.27872  0.36949  Biso   1.000  B 
  B346     1.0000 0.50000  0.17046  0.40470  Biso   1.000  B 
  B347     1.0000 0.50000  0.15360  0.34640  Biso   1.000  B 
  B348     1.0000 0.50000  0.09529  0.32954  Biso   1.000  B 
  H153     1.0000 0.46712  0.23731  0.07642  Biso   1.000  H 
  C58      1.0000 0.40948  0.17629  0.13001  Biso   1.000  C 
  H154     1.0000 0.42400  0.12849  0.14892  Biso   1.000  H 
  H155     1.0000 0.38569  0.16582  0.08458  Biso   1.000  H 
  C59      1.0000 0.35695  0.20343  0.17315  Biso   1.000  C 
  H156     1.0000 0.32082  0.16349  0.17943  Biso   1.000  H 
  C60      1.0000 0.32208  0.26234  0.14576  Biso   1.000  C 
  H157     1.0000 0.37477  0.21446  0.22216  Biso   1.000  H 
  H158     1.0000 0.35678  0.28928  0.11704  Biso   1.000  H 
  H159     1.0000 0.30282  0.29499  0.18400  Biso   1.000  H 
  H160     1.0000 0.28121  0.24817  0.11698  Biso   1.000  H 
  B349     1.0000 0.00000  0.84640  0.84640  Biso   1.000  B 
  B350     1.0000 0.00000  0.90471  0.82954  Biso   1.000  B 
  B351     1.0000 0.00000  0.82954  0.90471  Biso   1.000  B 
  B352     1.0000 0.00000  0.79500  0.79500  Biso   1.000  B 
  B353     1.0000 0.00000  0.73249  0.81563  Biso   1.000  B 
  N21      1.0000 0.98353  0.71046  0.88419  Biso   1.000  N 
  B354     1.0000 0.00000  0.63051  0.77872  Biso   1.000  B 
  B355     1.0000 0.00000  0.68442  0.76752  Biso   1.000  B 
  B356     1.0000 0.00000  0.70500  0.70501  Biso   1.000  B 
  B357     1.0000 0.00000  0.76751  0.68442  Biso   1.000  B 
  B358     1.0000 0.00000  0.81563  0.73249  Biso   1.000  B 
  B359     1.0000 0.00000  0.86954  0.72128  Biso   1.000  B 
  B360     1.0000 0.00000  0.77872  0.63051  Biso   1.000  B 
  B361     1.0000 0.00000  0.67046  0.59530  Biso   1.000  B 
  B362     1.0000 0.00000  0.65360  0.65361  Biso   1.000  B 
  B363     1.0000 0.00000  0.59529  0.67047  Biso   1.000  B 
  H161     1.0000 0.02537  0.70357  0.91100  Biso   1.000  H 
  C61      1.0000 0.93789  0.65506  0.88840  Biso   1.000  C 
  H162     1.0000 0.91036  0.64642  0.84142  Biso   1.000  H 
  H163     1.0000 0.90216  0.66937  0.92419  Biso   1.000  H 
  C62      1.0000 0.97525  0.59472  0.90932  Biso   1.000  C 
  H164     1.0000 0.01625  0.58323  0.87423  Biso   1.000  H 
  C63      1.0000 0.92824  0.53766  0.91724  Biso   1.000  C 
  H165     1.0000 0.99725  0.60383  0.95656  Biso   1.000  H 
  H166     1.0000 0.92130  0.51231  0.87164  Biso   1.000  H 
  H167     1.0000 0.88073  0.55246  0.93575  Biso   1.000  H 
  H168     1.0000 0.94997  0.50123  0.95051  Biso   1.000  H 
  B364     1.0000 0.00000  0.34640  0.34640  Biso   1.000  B 
  B365     1.0000 0.00000  0.40471  0.32954  Biso   1.000  B 
  B366     1.0000 0.00000  0.32954  0.40471  Biso   1.000  B 
  B367     1.0000 0.00000  0.29500  0.29500  Biso   1.000  B 
  B368     1.0000 0.00000  0.23249  0.31563  Biso   1.000  B 
  N22      1.0000 0.98593  0.21266  0.38652  Biso   1.000  N 
  B369     1.0000 0.00000  0.13051  0.27872  Biso   1.000  B 
  B370     1.0000 0.00000  0.18442  0.26751  Biso   1.000  B 
  B371     1.0000 0.00000  0.20500  0.20500  Biso   1.000  B 
  B372     1.0000 0.00000  0.26751  0.18442  Biso   1.000  B 
  B373     1.0000 0.00000  0.31563  0.23249  Biso   1.000  B 
  B374     1.0000 0.00000  0.36954  0.22128  Biso   1.000  B 
  B375     1.0000 0.00000  0.27872  0.13051  Biso   1.000  B 
  B376     1.0000 0.00000  0.17046  0.09530  Biso   1.000  B 
  B377     1.0000 0.00000  0.15360  0.15360  Biso   1.000  B 
  B378     1.0000 0.00000  0.09529  0.17046  Biso   1.000  B 
  H169     1.0000 0.02335  0.20607  0.41946  Biso   1.000  H 
  C64      1.0000 0.93686  0.16127  0.38774  Biso   1.000  C 
  H170     1.0000 0.90915  0.15780  0.34183  Biso   1.000  H 
  H171     1.0000 0.90123  0.17097  0.42470  Biso   1.000  H 
  C65      1.0000 0.96490  0.09257  0.40447  Biso   1.000  C 
  H172     1.0000 0.99946  0.07649  0.36774  Biso   1.000  H 
  C66      1.0000 0.91427  0.03900  0.41796  Biso   1.000  C 
  H173     1.0000 0.99032  0.09593  0.45238  Biso   1.000  H 
  H174     1.0000 0.93779  0.99557  0.39717  Biso   1.000  H 
  H175     1.0000 0.87067  0.04636  0.38987  Biso   1.000  H 
  H176     1.0000 0.90227  0.02853  0.46734  Biso   1.000  H 
  B379     1.0000 0.50000  0.84640  0.34640  Biso   1.000  B 
  B380     1.0000 0.50000  0.90471  0.32954  Biso   1.000  B 
  B381     1.0000 0.50000  0.82954  0.40471  Biso   1.000  B 
  B382     1.0000 0.50000  0.79500  0.29500  Biso   1.000  B 
  B383     1.0000 0.50000  0.73249  0.31563  Biso   1.000  B 
  N23      1.0000 0.48112  0.71379  0.38279  Biso   1.000  N 
  B384     1.0000 0.50000  0.63051  0.27872  Biso   1.000  B 
  B385     1.0000 0.50000  0.68442  0.26751  Biso   1.000  B 
  B386     1.0000 0.50000  0.70500  0.20500  Biso   1.000  B 
  B387     1.0000 0.50000  0.76751  0.18442  Biso   1.000  B 
  B388     1.0000 0.50000  0.81563  0.23249  Biso   1.000  B 
  B389     1.0000 0.50000  0.86954  0.22128  Biso   1.000  B 
  B390     1.0000 0.50000  0.77872  0.13051  Biso   1.000  B 
  B391     1.0000 0.50000  0.67046  0.09530  Biso   1.000  B 
  B392     1.0000 0.50000  0.65360  0.15360  Biso   1.000  B 
  B393     1.0000 0.50000  0.59529  0.17046  Biso   1.000  B 
  H177     1.0000 0.52172  0.69305  0.40138  Biso   1.000  H 
  C67      1.0000 0.42664  0.66591  0.38379  Biso   1.000  C 
  H178     1.0000 0.40358  0.65034  0.33730  Biso   1.000  H 
  H179     1.0000 0.38892  0.69232  0.40649  Biso   1.000  H 
  C68      1.0000 0.44191  0.60427  0.42405  Biso   1.000  C 
  H180     1.0000 0.48079  0.57831  0.40119  Biso   1.000  H 
  C69      1.0000 0.38381  0.55745  0.42657  Biso   1.000  C 
  H181     1.0000 0.45506  0.61872  0.47414  Biso   1.000  H 
  H182     1.0000 0.37929  0.53267  0.47303  Biso   1.000  H 
  H183     1.0000 0.38793  0.52169  0.38656  Biso   1.000  H 
  H184     1.0000 0.33781  0.58334  0.41926  Biso   1.000  H 
  B394     1.0000 0.50000  0.34640  0.84640  Biso   1.000  B 
  B395     1.0000 0.50000  0.40471  0.82954  Biso   1.000  B 
  B396     1.0000 0.50000  0.32954  0.90471  Biso   1.000  B 
  B397     1.0000 0.50000  0.29500  0.79500  Biso   1.000  B 
  B398     1.0000 0.50000  0.23249  0.81563  Biso   1.000  B 
  N24      1.0000 0.48881  0.21607  0.88528  Biso   1.000  N 
  B399     1.0000 0.50000  0.13051  0.77872  Biso   1.000  B 
  B400     1.0000 0.50000  0.18442  0.76752  Biso   1.000  B 
  B401     1.0000 0.50000  0.20500  0.70501  Biso   1.000  B 
  B402     1.0000 0.50000  0.26751  0.68442  Biso   1.000  B 
  B403     1.0000 0.50000  0.31563  0.73249  Biso   1.000  B 
  B404     1.0000 0.50000  0.36954  0.72128  Biso   1.000  B 
  B405     1.0000 0.50000  0.27872  0.63051  Biso   1.000  B 
  B406     1.0000 0.50000  0.17046  0.59530  Biso   1.000  B 
  B407     1.0000 0.50000  0.15360  0.65361  Biso   1.000  B 
  B408     1.0000 0.50000  0.09529  0.67047  Biso   1.000  B 
  H185     1.0000 0.52839  0.18792  0.89731  Biso   1.000  H 
  C70      1.0000 0.42800  0.18011  0.88640  Biso   1.000  C 
  H186     1.0000 0.41750  0.15674  0.83917  Biso   1.000  H 
  H187     1.0000 0.38968  0.21660  0.89224  Biso   1.000  H 
  C71      1.0000 0.42573  0.12461  0.93361  Biso   1.000  C 
  H188     1.0000 0.46931  0.09614  0.93179  Biso   1.000  H 
  C72      1.0000 0.36910  0.07945  0.91932  Biso   1.000  C 
  H189     1.0000 0.41940  0.14188  0.98174  Biso   1.000  H 
  H190     1.0000 0.32896  0.10994  0.90264  Biso   1.000  H 
  H191     1.0000 0.35557  0.05500  0.96319  Biso   1.000  H 
  H192     1.0000 0.38311  0.04233  0.88466  Biso   1.000  H 
