data_image0
_cell_length_a       20.7004
_cell_length_b       20.7004
_cell_length_c       20.7004
_cell_angle_alpha    90
_cell_angle_beta     90
_cell_angle_gamma    90

_symmetry_space_group_name_H-M    "P 1"
_symmetry_int_tables_number       1

loop_
  _symmetry_equiv_pos_as_xyz
  'x, y, z'

loop_
  _atom_site_label
  _atom_site_occupancy
  _atom_site_fract_x
  _atom_site_fract_y
  _atom_site_fract_z
  _atom_site_thermal_displace_type
  _atom_site_B_iso_or_equiv
  _atom_site_type_symbol
  B1       1.0000 0.11989  0.00000  0.00000  Biso   1.000  B 
  B2       1.0000 0.11989  0.50000  0.50000  Biso   1.000  B 
  B3       1.0000 0.61989  0.00000  0.50000  Biso   1.000  B 
  B4       1.0000 0.61989  0.50000  0.00000  Biso   1.000  B 
  B5       1.0000 0.88011  0.00000  0.00000  Biso   1.000  B 
  B6       1.0000 0.88011  0.50000  0.50000  Biso   1.000  B 
  B7       1.0000 0.38011  0.00000  0.50000  Biso   1.000  B 
  B8       1.0000 0.38011  0.50000  0.00000  Biso   1.000  B 
  B9       1.0000 0.00000  0.11989  0.00000  Biso   1.000  B 
  B10      1.0000 0.00000  0.61989  0.50000  Biso   1.000  B 
  B11      1.0000 0.50000  0.11989  0.50000  Biso   1.000  B 
  B12      1.0000 0.50000  0.61989  0.00000  Biso   1.000  B 
  B13      1.0000 0.00000  0.88011  0.00000  Biso   1.000  B 
  B14      1.0000 0.00000  0.38011  0.50000  Biso   1.000  B 
  B15      1.0000 0.50000  0.88011  0.50000  Biso   1.000  B 
  B16      1.0000 0.50000  0.38011  0.00000  Biso   1.000  B 
  B17      1.0000 0.00000  0.00000  0.11989  Biso   1.000  B 
  B18      1.0000 0.00000  0.50000  0.61989  Biso   1.000  B 
  B19      1.0000 0.50000  0.00000  0.61989  Biso   1.000  B 
  B20      1.0000 0.50000  0.50000  0.11989  Biso   1.000  B 
  B21      1.0000 0.00000  0.00000  0.88011  Biso   1.000  B 
  B22      1.0000 0.00000  0.50000  0.38011  Biso   1.000  B 
  B23      1.0000 0.50000  0.00000  0.38011  Biso   1.000  B 
  B24      1.0000 0.50000  0.50000  0.88011  Biso   1.000  B 
  B25      1.0000 0.05610  0.44390  0.44390  Biso   1.000  B 
  B26      1.0000 0.55610  0.94390  0.44390  Biso   1.000  B 
  B27      1.0000 0.55610  0.44390  0.94390  Biso   1.000  B 
  B28      1.0000 0.44390  0.05610  0.44390  Biso   1.000  B 
  B29      1.0000 0.44390  0.55610  0.94390  Biso   1.000  B 
  B30      1.0000 0.94390  0.94390  0.05610  Biso   1.000  B 
  B31      1.0000 0.94390  0.44390  0.55610  Biso   1.000  B 
  B32      1.0000 0.05610  0.05610  0.05610  Biso   1.000  B 
  B33      1.0000 0.55610  0.55610  0.05610  Biso   1.000  B 
  B34      1.0000 0.94390  0.05610  0.05610  Biso   1.000  B 
  B35      1.0000 0.94390  0.55610  0.55610  Biso   1.000  B 
  B36      1.0000 0.44390  0.05610  0.55610  Biso   1.000  B 
  B37      1.0000 0.44390  0.55610  0.05610  Biso   1.000  B 
  B38      1.0000 0.05610  0.94390  0.05610  Biso   1.000  B 
  B39      1.0000 0.05610  0.44390  0.55610  Biso   1.000  B 
  B40      1.0000 0.55610  0.94390  0.55610  Biso   1.000  B 
  B41      1.0000 0.55610  0.44390  0.05610  Biso   1.000  B 
  B42      1.0000 0.94390  0.94390  0.94390  Biso   1.000  B 
  B43      1.0000 0.94390  0.44390  0.44390  Biso   1.000  B 
  B44      1.0000 0.44390  0.94390  0.44390  Biso   1.000  B 
  B45      1.0000 0.44390  0.44390  0.94390  Biso   1.000  B 
  B46      1.0000 0.05610  0.05610  0.94390  Biso   1.000  B 
  B47      1.0000 0.05610  0.55610  0.44390  Biso   1.000  B 
  B48      1.0000 0.55610  0.05610  0.44390  Biso   1.000  B 
  B49      1.0000 0.15360  0.00000  0.84640  Biso   1.000  B 
  B50      1.0000 0.17046  0.00000  0.90471  Biso   1.000  B 
  B51      1.0000 0.09529  0.00000  0.82954  Biso   1.000  B 
  B52      1.0000 0.20500  0.00000  0.79500  Biso   1.000  B 
  B53      1.0000 0.18437  0.00000  0.73249  Biso   1.000  B 
  N1       1.0000 0.13221  0.94613  0.71965  Biso   1.000  N 
  B54      1.0000 0.22128  0.00000  0.63051  Biso   1.000  B 
  B55      1.0000 0.23249  0.00000  0.68442  Biso   1.000  B 
  B56      1.0000 0.29500  0.00000  0.70500  Biso   1.000  B 
  B57      1.0000 0.31558  0.00000  0.76751  Biso   1.000  B 
  B58      1.0000 0.26751  0.00000  0.81563  Biso   1.000  B 
  B59      1.0000 0.27872  0.00000  0.86954  Biso   1.000  B 
  B60      1.0000 0.36949  0.00000  0.77872  Biso   1.000  B 
  B61      1.0000 0.40470  0.00000  0.67046  Biso   1.000  B 
  B62      1.0000 0.34640  0.00000  0.65360  Biso   1.000  B 
  B63      1.0000 0.32954  0.00000  0.59529  Biso   1.000  B 
  H1       1.0000 0.08509  0.95296  0.73519  Biso   1.000  H 
  C1       1.0000 0.15349  0.88048  0.74599  Biso   1.000  C 
  H2       1.0000 0.11134  0.85030  0.75671  Biso   1.000  H 
  H3       1.0000 0.18248  0.88307  0.79084  Biso   1.000  H 
  C2       1.0000 0.19804  0.84319  0.70074  Biso   1.000  C 
  H4       1.0000 0.23979  0.87336  0.68685  Biso   1.000  H 
  C3       1.0000 0.16181  0.81632  0.64307  Biso   1.000  C 
  H5       1.0000 0.21662  0.80045  0.72765  Biso   1.000  H 
  H6       1.0000 0.19990  0.80262  0.61053  Biso   1.000  H 
  H7       1.0000 0.13529  0.77226  0.66013  Biso   1.000  H 
  C4       1.0000 0.11402  0.86472  0.61416  Biso   1.000  C 
  H8       1.0000 0.13666  0.91285  0.60378  Biso   1.000  H 
  H9       1.0000 0.07261  0.87136  0.64668  Biso   1.000  H 
  H10      1.0000 0.09265  0.84327  0.57076  Biso   1.000  H 
  B64      1.0000 0.15360  0.50000  0.34640  Biso   1.000  B 
  B65      1.0000 0.17046  0.50000  0.40471  Biso   1.000  B 
  B66      1.0000 0.09529  0.50000  0.32954  Biso   1.000  B 
  B67      1.0000 0.20500  0.50000  0.29500  Biso   1.000  B 
  B68      1.0000 0.18437  0.50000  0.23249  Biso   1.000  B 
  N2       1.0000 0.13412  0.44418  0.21923  Biso   1.000  N 
  B69      1.0000 0.22128  0.50000  0.13051  Biso   1.000  B 
  B70      1.0000 0.23249  0.50000  0.18442  Biso   1.000  B 
  B71      1.0000 0.29500  0.50000  0.20500  Biso   1.000  B 
  B72      1.0000 0.31558  0.50000  0.26751  Biso   1.000  B 
  B73      1.0000 0.26751  0.50000  0.31563  Biso   1.000  B 
  B74      1.0000 0.27872  0.50000  0.36954  Biso   1.000  B 
  B75      1.0000 0.36949  0.50000  0.27872  Biso   1.000  B 
  B76      1.0000 0.40470  0.50000  0.17046  Biso   1.000  B 
  B77      1.0000 0.34640  0.50000  0.15360  Biso   1.000  B 
  B78      1.0000 0.32954  0.50000  0.09529  Biso   1.000  B 
  H11      1.0000 0.08875  0.45149  0.23665  Biso   1.000  H 
  C5       1.0000 0.15584  0.38150  0.24882  Biso   1.000  C 
  H12      1.0000 0.11266  0.35318  0.26386  Biso   1.000  H 
  H13      1.0000 0.18597  0.38729  0.29214  Biso   1.000  H 
  C6       1.0000 0.19812  0.34273  0.20373  Biso   1.000  C 
  H14      1.0000 0.22563  0.37468  0.17084  Biso   1.000  H 
  C7       1.0000 0.15435  0.29814  0.16366  Biso   1.000  C 
  H15      1.0000 0.23313  0.31406  0.23377  Biso   1.000  H 
  H16      1.0000 0.18612  0.26835  0.13230  Biso   1.000  H 
  H17      1.0000 0.12692  0.26660  0.19618  Biso   1.000  H 
  C8       1.0000 0.10713  0.33923  0.12195  Biso   1.000  C 
  H18      1.0000 0.13322  0.37907  0.09848  Biso   1.000  H 
  H19      1.0000 0.06817  0.36294  0.14712  Biso   1.000  H 
  H20      1.0000 0.08661  0.30938  0.08415  Biso   1.000  H 
  B79      1.0000 0.65360  0.00000  0.34640  Biso   1.000  B 
  B80      1.0000 0.67046  0.00000  0.40471  Biso   1.000  B 
  B81      1.0000 0.59529  0.00000  0.32954  Biso   1.000  B 
  B82      1.0000 0.70500  0.00000  0.29500  Biso   1.000  B 
  B83      1.0000 0.68437  0.00000  0.23249  Biso   1.000  B 
  N3       1.0000 0.62938  0.95060  0.21774  Biso   1.000  N 
  B84      1.0000 0.72128  0.00000  0.13051  Biso   1.000  B 
  B85      1.0000 0.73248  0.00000  0.18442  Biso   1.000  B 
  B86      1.0000 0.79499  0.00000  0.20500  Biso   1.000  B 
  B87      1.0000 0.81558  0.00000  0.26751  Biso   1.000  B 
  B88      1.0000 0.76751  0.00000  0.31563  Biso   1.000  B 
  B89      1.0000 0.77872  0.00000  0.36954  Biso   1.000  B 
  B90      1.0000 0.86949  0.00000  0.27872  Biso   1.000  B 
  B91      1.0000 0.90470  0.00000  0.17046  Biso   1.000  B 
  B92      1.0000 0.84639  0.00000  0.15360  Biso   1.000  B 
  B93      1.0000 0.82953  0.00000  0.09529  Biso   1.000  B 
  H21      1.0000 0.58235  0.96262  0.22920  Biso   1.000  H 
  C9       1.0000 0.64396  0.88828  0.25138  Biso   1.000  C 
  H22      1.0000 0.60118  0.85983  0.25630  Biso   1.000  H 
  H23      1.0000 0.66195  0.89086  0.30128  Biso   1.000  H 
  C10      1.0000 0.69409  0.85023  0.21207  Biso   1.000  C 
  H24      1.0000 0.73008  0.88081  0.18880  Biso   1.000  H 
  C11      1.0000 0.66322  0.80920  0.16009  Biso   1.000  C 
  H25      1.0000 0.72076  0.81709  0.24646  Biso   1.000  H 
  H26      1.0000 0.70322  0.79657  0.12745  Biso   1.000  H 
  H27      1.0000 0.64628  0.76496  0.18322  Biso   1.000  H 
  C12      1.0000 0.60917  0.84419  0.11909  Biso   1.000  C 
  H28      1.0000 0.63311  0.88306  0.09317  Biso   1.000  H 
  H29      1.0000 0.57018  0.86588  0.14631  Biso   1.000  H 
  H30      1.0000 0.58774  0.80975  0.08529  Biso   1.000  H 
  B94      1.0000 0.65360  0.50000  0.84640  Biso   1.000  B 
  B95      1.0000 0.67046  0.50000  0.90471  Biso   1.000  B 
  B96      1.0000 0.59529  0.50000  0.82954  Biso   1.000  B 
  B97      1.0000 0.70500  0.50000  0.79500  Biso   1.000  B 
  B98      1.0000 0.68437  0.50000  0.73249  Biso   1.000  B 
  N4       1.0000 0.62624  0.45598  0.71714  Biso   1.000  N 
  B99      1.0000 0.72128  0.50000  0.63051  Biso   1.000  B 
  B100     1.0000 0.73248  0.50000  0.68442  Biso   1.000  B 
  B101     1.0000 0.79499  0.50000  0.70500  Biso   1.000  B 
  B102     1.0000 0.81558  0.50000  0.76751  Biso   1.000  B 
  B103     1.0000 0.76751  0.50000  0.81563  Biso   1.000  B 
  B104     1.0000 0.77872  0.50000  0.86954  Biso   1.000  B 
  B105     1.0000 0.86949  0.50000  0.77872  Biso   1.000  B 
  B106     1.0000 0.90470  0.50000  0.67046  Biso   1.000  B 
  B107     1.0000 0.84639  0.50000  0.65360  Biso   1.000  B 
  B108     1.0000 0.82953  0.50000  0.59529  Biso   1.000  B 
  H31      1.0000 0.57958  0.47234  0.72859  Biso   1.000  H 
  C13      1.0000 0.64204  0.38986  0.73958  Biso   1.000  C 
  H32      1.0000 0.59944  0.36355  0.75149  Biso   1.000  H 
  H33      1.0000 0.67259  0.38791  0.78359  Biso   1.000  H 
  C14      1.0000 0.67961  0.35558  0.68578  Biso   1.000  C 
  H34      1.0000 0.71304  0.38866  0.66055  Biso   1.000  H 
  C15      1.0000 0.64244  0.32115  0.63524  Biso   1.000  C 
  H35      1.0000 0.70948  0.31876  0.71008  Biso   1.000  H 
  H36      1.0000 0.68245  0.30472  0.60556  Biso   1.000  H 
  H37      1.0000 0.61904  0.27847  0.65812  Biso   1.000  H 
  C16      1.0000 0.59598  0.36895  0.60239  Biso   1.000  C 
  H38      1.0000 0.61838  0.41551  0.59272  Biso   1.000  H 
  H39      1.0000 0.55768  0.37473  0.63501  Biso   1.000  H 
  H40      1.0000 0.57627  0.34835  0.55990  Biso   1.000  H 
  B109     1.0000 0.84640  0.00000  0.84640  Biso   1.000  B 
  B110     1.0000 0.82954  0.00000  0.90471  Biso   1.000  B 
  B111     1.0000 0.90471  0.00000  0.82954  Biso   1.000  B 
  B112     1.0000 0.79500  0.00000  0.79500  Biso   1.000  B 
  B113     1.0000 0.81563  0.00000  0.73249  Biso   1.000  B 
  N5       1.0000 0.87378  0.95656  0.71542  Biso   1.000  N 
  B114     1.0000 0.77872  0.00000  0.63051  Biso   1.000  B 
  B115     1.0000 0.76752  0.00000  0.68442  Biso   1.000  B 
  B116     1.0000 0.70501  0.00000  0.70500  Biso   1.000  B 
  B117     1.0000 0.68442  0.00000  0.76751  Biso   1.000  B 
  B118     1.0000 0.73249  0.00000  0.81563  Biso   1.000  B 
  B119     1.0000 0.72128  0.00000  0.86954  Biso   1.000  B 
  B120     1.0000 0.63051  0.00000  0.77872  Biso   1.000  B 
  B121     1.0000 0.59530  0.00000  0.67046  Biso   1.000  B 
  B122     1.0000 0.65361  0.00000  0.65360  Biso   1.000  B 
  B123     1.0000 0.67047  0.00000  0.59529  Biso   1.000  B 
  H41      1.0000 0.85596  0.91020  0.71147  Biso   1.000  H 
  C17      1.0000 0.91145  0.96568  0.65720  Biso   1.000  C 
  H42      1.0000 0.88305  0.98068  0.61451  Biso   1.000  H 
  H43      1.0000 0.93519  0.91813  0.64455  Biso   1.000  H 
  C18      1.0000 0.96158  0.01362  0.67784  Biso   1.000  C 
  H44      1.0000 0.94160  0.06196  0.68066  Biso   1.000  H 
  C19      1.0000 0.01490  0.01701  0.63019  Biso   1.000  C 
  H45      1.0000 0.98166  0.99915  0.72629  Biso   1.000  H 
  H46      1.0000 0.99302  0.03525  0.58538  Biso   1.000  H 
  H47      1.0000 0.03454  0.96791  0.61933  Biso   1.000  H 
  C20      1.0000 0.07077  0.05677  0.65787  Biso   1.000  C 
  H48      1.0000 0.07592  0.04915  0.70998  Biso   1.000  H 
  H49      1.0000 0.06692  0.10954  0.65369  Biso   1.000  H 
  H50      1.0000 0.11516  0.03935  0.63369  Biso   1.000  H 
  B124     1.0000 0.84640  0.50000  0.34640  Biso   1.000  B 
  B125     1.0000 0.82954  0.50000  0.40471  Biso   1.000  B 
  B126     1.0000 0.90471  0.50000  0.32954  Biso   1.000  B 
  B127     1.0000 0.79500  0.50000  0.29500  Biso   1.000  B 
  B128     1.0000 0.81563  0.50000  0.23249  Biso   1.000  B 
  N6       1.0000 0.87161  0.45327  0.21678  Biso   1.000  N 
  B129     1.0000 0.77872  0.50000  0.13051  Biso   1.000  B 
  B130     1.0000 0.76752  0.50000  0.18442  Biso   1.000  B 
  B131     1.0000 0.70501  0.50000  0.20500  Biso   1.000  B 
  B132     1.0000 0.68442  0.50000  0.26751  Biso   1.000  B 
  B133     1.0000 0.73249  0.50000  0.31563  Biso   1.000  B 
  B134     1.0000 0.72128  0.50000  0.36954  Biso   1.000  B 
  B135     1.0000 0.63051  0.50000  0.27872  Biso   1.000  B 
  B136     1.0000 0.59530  0.50000  0.17046  Biso   1.000  B 
  B137     1.0000 0.65361  0.50000  0.15360  Biso   1.000  B 
  B138     1.0000 0.67047  0.50000  0.09529  Biso   1.000  B 
  H51      1.0000 0.85596  0.40580  0.21168  Biso   1.000  H 
  C21      1.0000 0.91064  0.47069  0.16341  Biso   1.000  C 
  H52      1.0000 0.88589  0.49901  0.12549  Biso   1.000  H 
  H53      1.0000 0.93118  0.42587  0.14241  Biso   1.000  H 
  C22      1.0000 0.96265  0.50773  0.19389  Biso   1.000  C 
  H54      1.0000 0.94227  0.54917  0.22248  Biso   1.000  H 
  C23      1.0000 0.00550  0.53078  0.14292  Biso   1.000  C 
  H55      1.0000 0.98707  0.47674  0.22891  Biso   1.000  H 
  H56      1.0000 0.97897  0.56884  0.11691  Biso   1.000  H 
  H57      1.0000 0.01746  0.49033  0.11084  Biso   1.000  H 
  C24      1.0000 0.06513  0.55486  0.17529  Biso   1.000  C 
  H58      1.0000 0.06636  0.55034  0.22826  Biso   1.000  H 
  H59      1.0000 0.07627  0.60442  0.16449  Biso   1.000  H 
  H60      1.0000 0.10148  0.52501  0.15477  Biso   1.000  H 
  B139     1.0000 0.34640  0.00000  0.34640  Biso   1.000  B 
  B140     1.0000 0.32954  0.00000  0.40471  Biso   1.000  B 
  B141     1.0000 0.40471  0.00000  0.32954  Biso   1.000  B 
  B142     1.0000 0.29500  0.00000  0.29500  Biso   1.000  B 
  B143     1.0000 0.31563  0.00000  0.23249  Biso   1.000  B 
  N7       1.0000 0.37191  0.95263  0.21870  Biso   1.000  N 
  B144     1.0000 0.27872  0.00000  0.13051  Biso   1.000  B 
  B145     1.0000 0.26751  0.00000  0.18442  Biso   1.000  B 
  B146     1.0000 0.20500  0.00000  0.20500  Biso   1.000  B 
  B147     1.0000 0.18442  0.00000  0.26751  Biso   1.000  B 
  B148     1.0000 0.23249  0.00000  0.31563  Biso   1.000  B 
  B149     1.0000 0.22128  0.00000  0.36954  Biso   1.000  B 
  B150     1.0000 0.13051  0.00000  0.27872  Biso   1.000  B 
  B151     1.0000 0.09530  0.00000  0.17046  Biso   1.000  B 
  B152     1.0000 0.15360  0.00000  0.15360  Biso   1.000  B 
  B153     1.0000 0.17046  0.00000  0.09529  Biso   1.000  B 
  H61      1.0000 0.35407  0.90555  0.21669  Biso   1.000  H 
  C25      1.0000 0.41033  0.96664  0.16232  Biso   1.000  C 
  H62      1.0000 0.38005  0.98084  0.11950  Biso   1.000  H 
  H63      1.0000 0.43795  0.92213  0.15000  Biso   1.000  H 
  C26      1.0000 0.45592  0.01928  0.18325  Biso   1.000  C 
  H64      1.0000 0.42971  0.05755  0.20941  Biso   1.000  H 
  C27      1.0000 0.49306  0.04667  0.12801  Biso   1.000  C 
  H65      1.0000 0.48663  0.99292  0.21785  Biso   1.000  H 
  H66      1.0000 0.46775  0.09085  0.10923  Biso   1.000  H 
  H67      1.0000 0.49490  0.00985  0.08854  Biso   1.000  H 
  C28      1.0000 0.56032  0.06059  0.15263  Biso   1.000  C 
  H68      1.0000 0.56740  0.06325  0.20540  Biso   1.000  H 
  H69      1.0000 0.57464  0.10763  0.13329  Biso   1.000  H 
  H70      1.0000 0.58665  0.01891  0.13763  Biso   1.000  H 
  B154     1.0000 0.34640  0.50000  0.84640  Biso   1.000  B 
  B155     1.0000 0.32954  0.50000  0.90471  Biso   1.000  B 
  B156     1.0000 0.40471  0.50000  0.82954  Biso   1.000  B 
  B157     1.0000 0.29500  0.50000  0.79500  Biso   1.000  B 
  B158     1.0000 0.31563  0.50000  0.73249  Biso   1.000  B 
  N8       1.0000 0.38460  0.47723  0.71670  Biso   1.000  N 
  B159     1.0000 0.27872  0.50000  0.63051  Biso   1.000  B 
  B160     1.0000 0.26751  0.50000  0.68442  Biso   1.000  B 
  B161     1.0000 0.20500  0.50000  0.70500  Biso   1.000  B 
  B162     1.0000 0.18442  0.50000  0.76751  Biso   1.000  B 
  B163     1.0000 0.23249  0.50000  0.81563  Biso   1.000  B 
  B164     1.0000 0.22128  0.50000  0.86954  Biso   1.000  B 
  B165     1.0000 0.13051  0.50000  0.77872  Biso   1.000  B 
  B166     1.0000 0.09530  0.50000  0.67046  Biso   1.000  B 
  B167     1.0000 0.15360  0.50000  0.65360  Biso   1.000  B 
  B168     1.0000 0.17046  0.50000  0.59529  Biso   1.000  B 
  H71      1.0000 0.39003  0.43338  0.74068  Biso   1.000  H 
  C29      1.0000 0.40899  0.46569  0.65043  Biso   1.000  C 
  H72      1.0000 0.37739  0.48571  0.61368  Biso   1.000  H 
  H73      1.0000 0.41326  0.41216  0.64093  Biso   1.000  H 
  C30      1.0000 0.47582  0.49617  0.64055  Biso   1.000  C 
  H74      1.0000 0.47994  0.53366  0.67791  Biso   1.000  H 
  C31      1.0000 0.48730  0.52759  0.57420  Biso   1.000  C 
  H75      1.0000 0.51336  0.46093  0.64789  Biso   1.000  H 
  H76      1.0000 0.45709  0.57046  0.57488  Biso   1.000  H 
  H77      1.0000 0.47454  0.49387  0.53384  Biso   1.000  H 
  C32      1.0000 0.55335  0.55938  0.56601  Biso   1.000  C 
  H78      1.0000 0.55785  0.60129  0.59885  Biso   1.000  H 
  H79      1.0000 0.55808  0.57625  0.51506  Biso   1.000  H 
  H80      1.0000 0.59098  0.52419  0.57832  Biso   1.000  H 
  B169     1.0000 0.84640  0.15360  0.00000  Biso   1.000  B 
  B170     1.0000 0.90471  0.17046  0.00000  Biso   1.000  B 
  B171     1.0000 0.82954  0.09529  0.00000  Biso   1.000  B 
  B172     1.0000 0.79500  0.20500  0.00000  Biso   1.000  B 
  B173     1.0000 0.73249  0.18437  0.00000  Biso   1.000  B 
  N9       1.0000 0.72233  0.13263  0.94163  Biso   1.000  N 
  B174     1.0000 0.63051  0.22128  0.00000  Biso   1.000  B 
  B175     1.0000 0.68442  0.23249  0.00000  Biso   1.000  B 
  B176     1.0000 0.70500  0.29500  0.00000  Biso   1.000  B 
  B177     1.0000 0.76751  0.31558  0.00000  Biso   1.000  B 
  B178     1.0000 0.81563  0.26751  0.00000  Biso   1.000  B 
  B179     1.0000 0.86954  0.27872  0.00000  Biso   1.000  B 
  B180     1.0000 0.77872  0.36949  0.00000  Biso   1.000  B 
  B181     1.0000 0.67046  0.40470  0.00000  Biso   1.000  B 
  B182     1.0000 0.65360  0.34640  0.00000  Biso   1.000  B 
  B183     1.0000 0.59529  0.32954  0.00000  Biso   1.000  B 
  H81      1.0000 0.73911  0.08529  0.94416  Biso   1.000  H 
  C33      1.0000 0.74763  0.15554  0.87821  Biso   1.000  C 
  H82      1.0000 0.75514  0.11327  0.84702  Biso   1.000  H 
  H83      1.0000 0.79585  0.17747  0.88382  Biso   1.000  H 
  C34      1.0000 0.70041  0.20433  0.84504  Biso   1.000  C 
  H84      1.0000 0.67814  0.24018  0.87875  Biso   1.000  H 
  C35      1.0000 0.64844  0.16564  0.81129  Biso   1.000  C 
  H85      1.0000 0.72650  0.23207  0.80701  Biso   1.000  H 
  H86      1.0000 0.61411  0.20213  0.79614  Biso   1.000  H 
  H87      1.0000 0.67047  0.14154  0.76732  Biso   1.000  H 
  C36      1.0000 0.61823  0.11470  0.85730  Biso   1.000  C 
  H88      1.0000 0.60496  0.13842  0.90269  Biso   1.000  H 
  H89      1.0000 0.64941  0.07545  0.86658  Biso   1.000  H 
  H90      1.0000 0.57530  0.09317  0.83562  Biso   1.000  H 
  B184     1.0000 0.84640  0.65360  0.50000  Biso   1.000  B 
  B185     1.0000 0.90471  0.67046  0.50000  Biso   1.000  B 
  B186     1.0000 0.82954  0.59529  0.50000  Biso   1.000  B 
  B187     1.0000 0.79500  0.70500  0.50000  Biso   1.000  B 
  B188     1.0000 0.73249  0.68437  0.50000  Biso   1.000  B 
  N10      1.0000 0.71796  0.63293  0.44968  Biso   1.000  N 
  B189     1.0000 0.63051  0.72128  0.50000  Biso   1.000  B 
  B190     1.0000 0.68442  0.73248  0.50000  Biso   1.000  B 
  B191     1.0000 0.70500  0.79499  0.50000  Biso   1.000  B 
  B192     1.0000 0.76751  0.81558  0.50000  Biso   1.000  B 
  B193     1.0000 0.81563  0.76751  0.50000  Biso   1.000  B 
  B194     1.0000 0.86954  0.77872  0.50000  Biso   1.000  B 
  B195     1.0000 0.77872  0.86949  0.50000  Biso   1.000  B 
  B196     1.0000 0.67046  0.90470  0.50000  Biso   1.000  B 
  B197     1.0000 0.65360  0.84639  0.50000  Biso   1.000  B 
  B198     1.0000 0.59529  0.82953  0.50000  Biso   1.000  B 
  H91      1.0000 0.72803  0.58514  0.46338  Biso   1.000  H 
  C37      1.0000 0.74510  0.64833  0.38346  Biso   1.000  C 
  H92      1.0000 0.75742  0.60408  0.35935  Biso   1.000  H 
  H93      1.0000 0.78941  0.67833  0.38522  Biso   1.000  H 
  C38      1.0000 0.69929  0.68845  0.34020  Biso   1.000  C 
  H94      1.0000 0.68907  0.73328  0.36660  Biso   1.000  H 
  C39      1.0000 0.63621  0.65648  0.32267  Biso   1.000  C 
  H95      1.0000 0.72561  0.70145  0.29503  Biso   1.000  H 
  H96      1.0000 0.60631  0.69798  0.31460  Biso   1.000  H 
  H97      1.0000 0.64452  0.63116  0.27634  Biso   1.000  H 
  C40      1.0000 0.60884  0.61050  0.37577  Biso   1.000  C 
  H98      1.0000 0.60339  0.63718  0.42202  Biso   1.000  H 
  H99      1.0000 0.63915  0.56768  0.38244  Biso   1.000  H 
  H100     1.0000 0.56277  0.59280  0.36222  Biso   1.000  H 
  B199     1.0000 0.34640  0.15360  0.50000  Biso   1.000  B 
  B200     1.0000 0.40471  0.17046  0.50000  Biso   1.000  B 
  B201     1.0000 0.32954  0.09529  0.50000  Biso   1.000  B 
  B202     1.0000 0.29500  0.20500  0.50000  Biso   1.000  B 
  B203     1.0000 0.23249  0.18437  0.50000  Biso   1.000  B 
  N11      1.0000 0.21767  0.13074  0.45246  Biso   1.000  N 
  B204     1.0000 0.13051  0.22128  0.50000  Biso   1.000  B 
  B205     1.0000 0.18442  0.23249  0.50000  Biso   1.000  B 
  B206     1.0000 0.20500  0.29500  0.50000  Biso   1.000  B 
  B207     1.0000 0.26751  0.31558  0.50000  Biso   1.000  B 
  B208     1.0000 0.31563  0.26751  0.50000  Biso   1.000  B 
  B209     1.0000 0.36954  0.27872  0.50000  Biso   1.000  B 
  B210     1.0000 0.27872  0.36949  0.50000  Biso   1.000  B 
  B211     1.0000 0.17046  0.40470  0.50000  Biso   1.000  B 
  B212     1.0000 0.15360  0.34640  0.50000  Biso   1.000  B 
  B213     1.0000 0.09529  0.32954  0.50000  Biso   1.000  B 
  H101     1.0000 0.22553  0.08463  0.47058  Biso   1.000  H 
  C41      1.0000 0.24796  0.14506  0.38916  Biso   1.000  C 
  H102     1.0000 0.25939  0.10094  0.36391  Biso   1.000  H 
  H103     1.0000 0.29428  0.17133  0.39148  Biso   1.000  H 
  C42      1.0000 0.20663  0.18827  0.34480  Biso   1.000  C 
  H104     1.0000 0.17326  0.21861  0.37383  Biso   1.000  H 
  C43      1.0000 0.17189  0.14988  0.29442  Biso   1.000  C 
  H105     1.0000 0.24028  0.22044  0.31685  Biso   1.000  H 
  H106     1.0000 0.15142  0.18516  0.26062  Biso   1.000  H 
  H107     1.0000 0.20717  0.12017  0.26924  Biso   1.000  H 
  C44      1.0000 0.11615  0.10976  0.32140  Biso   1.000  C 
  H108     1.0000 0.08608  0.14239  0.34782  Biso   1.000  H 
  H109     1.0000 0.13208  0.07051  0.35429  Biso   1.000  H 
  H110     1.0000 0.08997  0.08908  0.28059  Biso   1.000  H 
  B214     1.0000 0.34640  0.65360  0.00000  Biso   1.000  B 
  B215     1.0000 0.40471  0.67046  0.00000  Biso   1.000  B 
  B216     1.0000 0.32954  0.59529  0.00000  Biso   1.000  B 
  B217     1.0000 0.29500  0.70500  0.00000  Biso   1.000  B 
  B218     1.0000 0.23249  0.68437  0.00000  Biso   1.000  B 
  N12      1.0000 0.21867  0.63607  0.94455  Biso   1.000  N 
  B219     1.0000 0.13051  0.72128  0.00000  Biso   1.000  B 
  B220     1.0000 0.18442  0.73248  0.00000  Biso   1.000  B 
  B221     1.0000 0.20500  0.79499  0.00000  Biso   1.000  B 
  B222     1.0000 0.26751  0.81558  0.00000  Biso   1.000  B 
  B223     1.0000 0.31563  0.76751  0.00000  Biso   1.000  B 
  B224     1.0000 0.36954  0.77872  0.00000  Biso   1.000  B 
  B225     1.0000 0.27872  0.86949  0.00000  Biso   1.000  B 
  B226     1.0000 0.17046  0.90470  0.00000  Biso   1.000  B 
  B227     1.0000 0.15360  0.84639  0.00000  Biso   1.000  B 
  B228     1.0000 0.09529  0.82953  0.00000  Biso   1.000  B 
  H111     1.0000 0.23120  0.58852  0.95303  Biso   1.000  H 
  C45      1.0000 0.25007  0.65707  0.88156  Biso   1.000  C 
  H112     1.0000 0.25816  0.61386  0.85156  Biso   1.000  H 
  H113     1.0000 0.29813  0.67992  0.88678  Biso   1.000  H 
  C46      1.0000 0.21087  0.70632  0.84312  Biso   1.000  C 
  H114     1.0000 0.18322  0.73924  0.87569  Biso   1.000  H 
  C47      1.0000 0.16545  0.67119  0.79620  Biso   1.000  C 
  H115     1.0000 0.24472  0.73597  0.81415  Biso   1.000  H 
  H116     1.0000 0.13657  0.70931  0.77114  Biso   1.000  H 
  H117     1.0000 0.19520  0.64643  0.75995  Biso   1.000  H 
  C48      1.0000 0.12226  0.62034  0.83268  Biso   1.000  C 
  H118     1.0000 0.09114  0.64705  0.86518  Biso   1.000  H 
  H119     1.0000 0.14862  0.58277  0.86106  Biso   1.000  H 
  H120     1.0000 0.09329  0.59372  0.79670  Biso   1.000  H 
  B229     1.0000 0.84640  0.84640  0.00000  Biso   1.000  B 
  B230     1.0000 0.90471  0.82954  0.00000  Biso   1.000  B 
  B231     1.0000 0.82954  0.90471  0.00000  Biso   1.000  B 
  B232     1.0000 0.79500  0.79500  0.00000  Biso   1.000  B 
  B233     1.0000 0.73249  0.81563  0.00000  Biso   1.000  B 
  N13      1.0000 0.71659  0.87358  0.95523  Biso   1.000  N 
  B234     1.0000 0.63051  0.77872  0.00000  Biso   1.000  B 
  B235     1.0000 0.68442  0.76752  0.00000  Biso   1.000  B 
  B236     1.0000 0.70500  0.70501  0.00000  Biso   1.000  B 
  B237     1.0000 0.76751  0.68442  0.00000  Biso   1.000  B 
  B238     1.0000 0.81563  0.73249  0.00000  Biso   1.000  B 
  B239     1.0000 0.86954  0.72128  0.00000  Biso   1.000  B 
  B240     1.0000 0.77872  0.63051  0.00000  Biso   1.000  B 
  B241     1.0000 0.67046  0.59530  0.00000  Biso   1.000  B 
  B242     1.0000 0.65360  0.65361  0.00000  Biso   1.000  B 
  B243     1.0000 0.59529  0.67047  0.00000  Biso   1.000  B 
  H121     1.0000 0.72221  0.86062  0.90747  Biso   1.000  H 
  C49      1.0000 0.65839  0.90979  0.95987  Biso   1.000  C 
  H122     1.0000 0.61741  0.87985  0.97642  Biso   1.000  H 
  H123     1.0000 0.64615  0.92916  0.91130  Biso   1.000  H 
  C50      1.0000 0.67561  0.96374  0.00476  Biso   1.000  C 
  H124     1.0000 0.69530  0.94451  0.05008  Biso   1.000  H 
  C51      1.0000 0.62210  0.01238  0.01549  Biso   1.000  C 
  H125     1.0000 0.71571  0.98918  0.97885  Biso   1.000  H 
  H126     1.0000 0.58493  0.98750  0.04473  Biso   1.000  H 
  H127     1.0000 0.60035  0.02642  0.96737  Biso   1.000  H 
  C52      1.0000 0.65187  0.07206  0.04547  Biso   1.000  C 
  H128     1.0000 0.70045  0.07718  0.03142  Biso   1.000  H 
  H129     1.0000 0.66051  0.06853  0.09666  Biso   1.000  H 
  H130     1.0000 0.62260  0.11584  0.03398  Biso   1.000  H 
  B244     1.0000 0.84640  0.34640  0.50000  Biso   1.000  B 
  B245     1.0000 0.90471  0.32954  0.50000  Biso   1.000  B 
  B246     1.0000 0.82954  0.40471  0.50000  Biso   1.000  B 
  B247     1.0000 0.79500  0.29500  0.50000  Biso   1.000  B 
  B248     1.0000 0.73249  0.31563  0.50000  Biso   1.000  B 
  N14      1.0000 0.71508  0.37792  0.46914  Biso   1.000  N 
  B249     1.0000 0.63051  0.27872  0.50000  Biso   1.000  B 
  B250     1.0000 0.68442  0.26751  0.50000  Biso   1.000  B 
  B251     1.0000 0.70500  0.20500  0.50000  Biso   1.000  B 
  B252     1.0000 0.76751  0.18442  0.50000  Biso   1.000  B 
  B253     1.0000 0.81563  0.23249  0.50000  Biso   1.000  B 
  B254     1.0000 0.86954  0.22128  0.50000  Biso   1.000  B 
  B255     1.0000 0.77872  0.13051  0.50000  Biso   1.000  B 
  B256     1.0000 0.67046  0.09530  0.50000  Biso   1.000  B 
  B257     1.0000 0.65360  0.15360  0.50000  Biso   1.000  B 
  B258     1.0000 0.59529  0.17046  0.50000  Biso   1.000  B 
  H131     1.0000 0.70729  0.42019  0.49506  Biso   1.000  H 
  C53      1.0000 0.70476  0.36785  0.39923  Biso   1.000  C 
  H132     1.0000 0.71934  0.31803  0.38560  Biso   1.000  H 
  H133     1.0000 0.73749  0.39882  0.37179  Biso   1.000  H 
  C54      1.0000 0.63270  0.36458  0.37555  Biso   1.000  C 
  H134     1.0000 0.62952  0.38923  0.32780  Biso   1.000  H 
  C55      1.0000 0.58382  0.39692  0.42377  Biso   1.000  C 
  H135     1.0000 0.61765  0.31269  0.37089  Biso   1.000  H 
  H136     1.0000 0.60492  0.44523  0.44108  Biso   1.000  H 
  H137     1.0000 0.58143  0.36011  0.46239  Biso   1.000  H 
  C56      1.0000 0.51020  0.40987  0.40568  Biso   1.000  C 
  H138     1.0000 0.50507  0.43348  0.35784  Biso   1.000  H 
  H139     1.0000 0.48575  0.44143  0.44180  Biso   1.000  H 
  H140     1.0000 0.48382  0.36528  0.40473  Biso   1.000  H 
  B259     1.0000 0.34640  0.84640  0.50000  Biso   1.000  B 
  B260     1.0000 0.40471  0.82954  0.50000  Biso   1.000  B 
  B261     1.0000 0.32954  0.90471  0.50000  Biso   1.000  B 
  B262     1.0000 0.29500  0.79500  0.50000  Biso   1.000  B 
  B263     1.0000 0.23249  0.81563  0.50000  Biso   1.000  B 
  N15      1.0000 0.21333  0.88122  0.47746  Biso   1.000  N 
  B264     1.0000 0.13051  0.77872  0.50000  Biso   1.000  B 
  B265     1.0000 0.18442  0.76752  0.50000  Biso   1.000  B 
  B266     1.0000 0.20500  0.70501  0.50000  Biso   1.000  B 
  B267     1.0000 0.26751  0.68442  0.50000  Biso   1.000  B 
  B268     1.0000 0.31563  0.73249  0.50000  Biso   1.000  B 
  B269     1.0000 0.36954  0.72128  0.50000  Biso   1.000  B 
  B270     1.0000 0.27872  0.63051  0.50000  Biso   1.000  B 
  B271     1.0000 0.17046  0.59530  0.50000  Biso   1.000  B 
  B272     1.0000 0.15360  0.65361  0.50000  Biso   1.000  B 
  B273     1.0000 0.09529  0.67047  0.50000  Biso   1.000  B 
  H141     1.0000 0.17620  0.89254  0.51112  Biso   1.000  H 
  C57      1.0000 0.18300  0.88628  0.41183  Biso   1.000  C 
  H142     1.0000 0.21820  0.87712  0.37280  Biso   1.000  H 
  H143     1.0000 0.16988  0.93673  0.41048  Biso   1.000  H 
  C58      1.0000 0.11795  0.84854  0.39212  Biso   1.000  C 
  H144     1.0000 0.11454  0.85714  0.33944  Biso   1.000  H 
  C59      1.0000 0.06211  0.87979  0.42455  Biso   1.000  C 
  H145     1.0000 0.11713  0.79651  0.39797  Biso   1.000  H 
  H146     1.0000 0.06750  0.86495  0.47363  Biso   1.000  H 
  H147     1.0000 0.01647  0.86238  0.40531  Biso   1.000  H 
  C60      1.0000 0.05330  0.95213  0.42739  Biso   1.000  C 
  H148     1.0000 0.06871  0.97843  0.38399  Biso   1.000  H 
  H149     1.0000 0.07978  0.97275  0.46992  Biso   1.000  H 
  H150     1.0000 0.00028  0.95987  0.43333  Biso   1.000  H 
  B274     1.0000 0.34640  0.34640  0.00000  Biso   1.000  B 
  B275     1.0000 0.40471  0.32954  0.00000  Biso   1.000  B 
  B276     1.0000 0.32954  0.40471  0.00000  Biso   1.000  B 
  B277     1.0000 0.29500  0.29500  0.00000  Biso   1.000  B 
  B278     1.0000 0.23249  0.31563  0.00000  Biso   1.000  B 
  N16      1.0000 0.21726  0.37213  0.95383  Biso   1.000  N 
  B279     1.0000 0.13051  0.27872  0.00000  Biso   1.000  B 
  B280     1.0000 0.18442  0.26751  0.00000  Biso   1.000  B 
  B281     1.0000 0.20500  0.20500  0.00000  Biso   1.000  B 
  B282     1.0000 0.26751  0.18442  0.00000  Biso   1.000  B 
  B283     1.0000 0.31563  0.23249  0.00000  Biso   1.000  B 
  B284     1.0000 0.36954  0.22128  0.00000  Biso   1.000  B 
  B285     1.0000 0.27872  0.13051  0.00000  Biso   1.000  B 
  B286     1.0000 0.17046  0.09530  0.00000  Biso   1.000  B 
  B287     1.0000 0.15360  0.15360  0.00000  Biso   1.000  B 
  B288     1.0000 0.09529  0.17046  0.00000  Biso   1.000  B 
  H151     1.0000 0.21449  0.35632  0.90638  Biso   1.000  H 
  C61      1.0000 0.16340  0.41249  0.97001  Biso   1.000  C 
  H152     1.0000 0.12162  0.38521  0.99034  Biso   1.000  H 
  H153     1.0000 0.14764  0.43360  0.92406  Biso   1.000  H 
  C62      1.0000 0.19009  0.46280  0.01395  Biso   1.000  C 
  H154     1.0000 0.21125  0.43878  0.05584  Biso   1.000  H 
  C63      1.0000 0.13733  0.50865  0.03185  Biso   1.000  C 
  H155     1.0000 0.22940  0.48724  0.98609  Biso   1.000  H 
  H156     1.0000 0.10435  0.48307  0.06404  Biso   1.000  H 
  H157     1.0000 0.10986  0.52217  0.98824  Biso   1.000  H 
  C64      1.0000 0.16927  0.56909  0.06006  Biso   1.000  C 
  H158     1.0000 0.22259  0.56664  0.05556  Biso   1.000  H 
  H159     1.0000 0.16238  0.58188  0.10988  Biso   1.000  H 
  H160     1.0000 0.15390  0.60782  0.03267  Biso   1.000  H 
  B289     1.0000 0.00000  0.84640  0.15360  Biso   1.000  B 
  B290     1.0000 0.00000  0.90471  0.17046  Biso   1.000  B 
  B291     1.0000 0.00000  0.82954  0.09529  Biso   1.000  B 
  B292     1.0000 0.00000  0.79500  0.20500  Biso   1.000  B 
  B293     1.0000 0.00000  0.73249  0.18437  Biso   1.000  B 
  N17      1.0000 0.94282  0.71858  0.13673  Biso   1.000  N 
  B294     1.0000 0.00000  0.63051  0.22128  Biso   1.000  B 
  B295     1.0000 0.00000  0.68442  0.23249  Biso   1.000  B 
  B296     1.0000 0.00000  0.70500  0.29500  Biso   1.000  B 
  B297     1.0000 0.00000  0.76751  0.31558  Biso   1.000  B 
  B298     1.0000 0.00000  0.81563  0.26751  Biso   1.000  B 
  B299     1.0000 0.00000  0.86954  0.27872  Biso   1.000  B 
  B300     1.0000 0.00000  0.77872  0.36949  Biso   1.000  B 
  B301     1.0000 0.00000  0.67046  0.40470  Biso   1.000  B 
  B302     1.0000 0.00000  0.65360  0.34640  Biso   1.000  B 
  B303     1.0000 0.00000  0.59529  0.32954  Biso   1.000  B 
  H161     1.0000 0.94852  0.73548  0.09008  Biso   1.000  H 
  C65      1.0000 0.88027  0.74837  0.15842  Biso   1.000  C 
  H162     1.0000 0.84972  0.75799  0.11565  Biso   1.000  H 
  H163     1.0000 0.88673  0.79631  0.18060  Biso   1.000  H 
  C66      1.0000 0.84406  0.70802  0.20856  Biso   1.000  C 
  H164     1.0000 0.87548  0.67416  0.23585  Biso   1.000  H 
  C67      1.0000 0.79196  0.66947  0.17531  Biso   1.000  C 
  H165     1.0000 0.82082  0.74083  0.24390  Biso   1.000  H 
  H166     1.0000 0.76844  0.63978  0.21255  Biso   1.000  H 
  H167     1.0000 0.75646  0.70358  0.15348  Biso   1.000  H 
  C68      1.0000 0.82399  0.62668  0.12462  Biso   1.000  C 
  H168     1.0000 0.85375  0.59310  0.15323  Biso   1.000  H 
  H169     1.0000 0.85507  0.64908  0.08665  Biso   1.000  H 
  H170     1.0000 0.78597  0.60013  0.09809  Biso   1.000  H 
  B304     1.0000 0.00000  0.34640  0.65360  Biso   1.000  B 
  B305     1.0000 0.00000  0.40471  0.67046  Biso   1.000  B 
  B306     1.0000 0.00000  0.32954  0.59529  Biso   1.000  B 
  B307     1.0000 0.00000  0.29500  0.70500  Biso   1.000  B 
  B308     1.0000 0.00000  0.23249  0.68437  Biso   1.000  B 
  N18      1.0000 0.95349  0.21751  0.62905  Biso   1.000  N 
  B309     1.0000 0.00000  0.13051  0.72128  Biso   1.000  B 
  B310     1.0000 0.00000  0.18442  0.73248  Biso   1.000  B 
  B311     1.0000 0.00000  0.20500  0.79499  Biso   1.000  B 
  B312     1.0000 0.00000  0.26751  0.81558  Biso   1.000  B 
  B313     1.0000 0.00000  0.31563  0.76751  Biso   1.000  B 
  B314     1.0000 0.00000  0.36954  0.77872  Biso   1.000  B 
  B315     1.0000 0.00000  0.27872  0.86949  Biso   1.000  B 
  B316     1.0000 0.00000  0.17046  0.90470  Biso   1.000  B 
  B317     1.0000 0.00000  0.15360  0.84639  Biso   1.000  B 
  B318     1.0000 0.00000  0.09529  0.82953  Biso   1.000  B 
  H171     1.0000 0.97254  0.22248  0.58372  Biso   1.000  H 
  C69      1.0000 0.88945  0.24887  0.64161  Biso   1.000  C 
  H172     1.0000 0.86279  0.24780  0.59857  Biso   1.000  H 
  H173     1.0000 0.89190  0.30061  0.65409  Biso   1.000  H 
  C70      1.0000 0.85096  0.21297  0.69503  Biso   1.000  C 
  H174     1.0000 0.88144  0.18020  0.72299  Biso   1.000  H 
  C71      1.0000 0.79691  0.17081  0.66868  Biso   1.000  C 
  H175     1.0000 0.82994  0.24967  0.72821  Biso   1.000  H 
  H176     1.0000 0.77401  0.14655  0.71085  Biso   1.000  H 
  H177     1.0000 0.76106  0.20254  0.64492  Biso   1.000  H 
  C72      1.0000 0.82783  0.11942  0.62353  Biso   1.000  C 
  H178     1.0000 0.85254  0.08380  0.65271  Biso   1.000  H 
  H179     1.0000 0.86118  0.13912  0.58770  Biso   1.000  H 
  H180     1.0000 0.78895  0.09549  0.59757  Biso   1.000  H 
  B319     1.0000 0.50000  0.84640  0.65360  Biso   1.000  B 
  B320     1.0000 0.50000  0.90471  0.67046  Biso   1.000  B 
  B321     1.0000 0.50000  0.82954  0.59529  Biso   1.000  B 
  B322     1.0000 0.50000  0.79500  0.70500  Biso   1.000  B 
  B323     1.0000 0.50000  0.73249  0.68437  Biso   1.000  B 
  N19      1.0000 0.45590  0.71508  0.62822  Biso   1.000  N 
  B324     1.0000 0.50000  0.63051  0.72128  Biso   1.000  B 
  B325     1.0000 0.50000  0.68442  0.73248  Biso   1.000  B 
  B326     1.0000 0.50000  0.70500  0.79499  Biso   1.000  B 
  B327     1.0000 0.50000  0.76751  0.81558  Biso   1.000  B 
  B328     1.0000 0.50000  0.81563  0.76751  Biso   1.000  B 
  B329     1.0000 0.50000  0.86954  0.77872  Biso   1.000  B 
  B330     1.0000 0.50000  0.77872  0.86949  Biso   1.000  B 
  B331     1.0000 0.50000  0.67046  0.90470  Biso   1.000  B 
  B332     1.0000 0.50000  0.65360  0.84639  Biso   1.000  B 
  B333     1.0000 0.50000  0.59529  0.82953  Biso   1.000  B 
  H181     1.0000 0.47293  0.72594  0.58211  Biso   1.000  H 
  C73      1.0000 0.39030  0.74525  0.64327  Biso   1.000  C 
  H182     1.0000 0.36216  0.74857  0.60108  Biso   1.000  H 
  H183     1.0000 0.39045  0.79579  0.66080  Biso   1.000  H 
  C74      1.0000 0.34899  0.70684  0.69304  Biso   1.000  C 
  H184     1.0000 0.37978  0.67854  0.72519  Biso   1.000  H 
  C75      1.0000 0.29921  0.66172  0.66568  Biso   1.000  C 
  H185     1.0000 0.32203  0.74168  0.72392  Biso   1.000  H 
  H186     1.0000 0.28198  0.63120  0.70582  Biso   1.000  H 
  H187     1.0000 0.25690  0.68950  0.64568  Biso   1.000  H 
  C76      1.0000 0.33545  0.61887  0.61964  Biso   1.000  C 
  H188     1.0000 0.36357  0.58493  0.65078  Biso   1.000  H 
  H189     1.0000 0.37019  0.64254  0.58388  Biso   1.000  H 
  H190     1.0000 0.29544  0.59362  0.59466  Biso   1.000  H 
  B334     1.0000 0.50000  0.34640  0.15360  Biso   1.000  B 
  B335     1.0000 0.50000  0.40471  0.17046  Biso   1.000  B 
  B336     1.0000 0.50000  0.32954  0.09529  Biso   1.000  B 
  B337     1.0000 0.50000  0.29500  0.20500  Biso   1.000  B 
  B338     1.0000 0.50000  0.23249  0.18437  Biso   1.000  B 
  N20      1.0000 0.45388  0.21549  0.13017  Biso   1.000  N 
  B339     1.0000 0.50000  0.13051  0.22128  Biso   1.000  B 
  B340     1.0000 0.50000  0.18442  0.23249  Biso   1.000  B 
  B341     1.0000 0.50000  0.20500  0.29500  Biso   1.000  B 
  B342     1.0000 0.50000  0.26751  0.31558  Biso   1.000  B 
  B343     1.0000 0.50000  0.31563  0.26751  Biso   1.000  B 
  B344     1.0000 0.50000  0.36954  0.27872  Biso   1.000  B 
  B345     1.0000 0.50000  0.27872  0.36949  Biso   1.000  B 
  B346     1.0000 0.50000  0.17046  0.40470  Biso   1.000  B 
  B347     1.0000 0.50000  0.15360  0.34640  Biso   1.000  B 
  B348     1.0000 0.50000  0.09529  0.32954  Biso   1.000  B 
  H191     1.0000 0.47022  0.22911  0.08520  Biso   1.000  H 
  C77      1.0000 0.38896  0.24459  0.14585  Biso   1.000  C 
  H192     1.0000 0.36106  0.25299  0.10226  Biso   1.000  H 
  H193     1.0000 0.39000  0.29165  0.17012  Biso   1.000  H 
  C78      1.0000 0.34638  0.20274  0.19215  Biso   1.000  C 
  H194     1.0000 0.37772  0.17381  0.22386  Biso   1.000  H 
  C79      1.0000 0.29808  0.16078  0.15763  Biso   1.000  C 
  H195     1.0000 0.31742  0.23632  0.22456  Biso   1.000  H 
  H196     1.0000 0.27426  0.13063  0.19443  Biso   1.000  H 
  H197     1.0000 0.26062  0.19065  0.13463  Biso   1.000  H 
  C80      1.0000 0.32988  0.11672  0.11221  Biso   1.000  C 
  H198     1.0000 0.36046  0.08265  0.13625  Biso   1.000  H 
  H199     1.0000 0.35780  0.14548  0.07737  Biso   1.000  H 
  H200     1.0000 0.29338  0.08809  0.08611  Biso   1.000  H 
  B349     1.0000 0.00000  0.84640  0.84640  Biso   1.000  B 
  B350     1.0000 0.00000  0.90471  0.82954  Biso   1.000  B 
  B351     1.0000 0.00000  0.82954  0.90471  Biso   1.000  B 
  B352     1.0000 0.00000  0.79500  0.79500  Biso   1.000  B 
  B353     1.0000 0.00000  0.73249  0.81563  Biso   1.000  B 
  N21      1.0000 0.94912  0.71700  0.86947  Biso   1.000  N 
  B354     1.0000 0.00000  0.63051  0.77872  Biso   1.000  B 
  B355     1.0000 0.00000  0.68442  0.76752  Biso   1.000  B 
  B356     1.0000 0.00000  0.70500  0.70501  Biso   1.000  B 
  B357     1.0000 0.00000  0.76751  0.68442  Biso   1.000  B 
  B358     1.0000 0.00000  0.81563  0.73249  Biso   1.000  B 
  B359     1.0000 0.00000  0.86954  0.72128  Biso   1.000  B 
  B360     1.0000 0.00000  0.77872  0.63051  Biso   1.000  B 
  B361     1.0000 0.00000  0.67046  0.59530  Biso   1.000  B 
  B362     1.0000 0.00000  0.65360  0.65361  Biso   1.000  B 
  B363     1.0000 0.00000  0.59529  0.67047  Biso   1.000  B 
  H201     1.0000 0.90358  0.70865  0.84966  Biso   1.000  H 
  C81      1.0000 0.96573  0.66512  0.91188  Biso   1.000  C 
  H202     1.0000 0.98905  0.62426  0.88698  Biso   1.000  H 
  H203     1.0000 0.92199  0.64810  0.93750  Biso   1.000  H 
  C82      1.0000 0.01020  0.69310  0.95953  Biso   1.000  C 
  H204     1.0000 0.05027  0.71967  0.93553  Biso   1.000  H 
  C83      1.0000 0.03822  0.64192  0.00274  Biso   1.000  C 
  H205     1.0000 0.98240  0.72826  0.98860  Biso   1.000  H 
  H206     1.0000 0.07742  0.62214  0.97516  Biso   1.000  H 
  H207     1.0000 0.00122  0.60290  0.01223  Biso   1.000  H 
  C84      1.0000 0.05545  0.67608  0.06501  Biso   1.000  C 
  H208     1.0000 0.05100  0.72826  0.06318  Biso   1.000  H 
  H209     1.0000 0.10106  0.66722  0.08749  Biso   1.000  H 
  H210     1.0000 0.02036  0.65706  0.09753  Biso   1.000  H 
  B364     1.0000 0.00000  0.34640  0.34640  Biso   1.000  B 
  B365     1.0000 0.00000  0.40471  0.32954  Biso   1.000  B 
  B366     1.0000 0.00000  0.32954  0.40471  Biso   1.000  B 
  B367     1.0000 0.00000  0.29500  0.29500  Biso   1.000  B 
  B368     1.0000 0.00000  0.23249  0.31563  Biso   1.000  B 
  N22      1.0000 0.95322  0.21833  0.37322  Biso   1.000  N 
  B369     1.0000 0.00000  0.13051  0.27872  Biso   1.000  B 
  B370     1.0000 0.00000  0.18442  0.26751  Biso   1.000  B 
  B371     1.0000 0.00000  0.20500  0.20500  Biso   1.000  B 
  B372     1.0000 0.00000  0.26751  0.18442  Biso   1.000  B 
  B373     1.0000 0.00000  0.31563  0.23249  Biso   1.000  B 
  B374     1.0000 0.00000  0.36954  0.22128  Biso   1.000  B 
  B375     1.0000 0.00000  0.27872  0.13051  Biso   1.000  B 
  B376     1.0000 0.00000  0.17046  0.09530  Biso   1.000  B 
  B377     1.0000 0.00000  0.15360  0.15360  Biso   1.000  B 
  B378     1.0000 0.00000  0.09529  0.17046  Biso   1.000  B 
  H211     1.0000 0.90692  0.21064  0.35523  Biso   1.000  H 
  C85      1.0000 0.96941  0.16496  0.41414  Biso   1.000  C 
  H212     1.0000 0.97734  0.11886  0.38617  Biso   1.000  H 
  H213     1.0000 0.93003  0.15879  0.44924  Biso   1.000  H 
  C86      1.0000 0.02914  0.18412  0.44888  Biso   1.000  C 
  H214     1.0000 0.06243  0.20971  0.41686  Biso   1.000  H 
  C87      1.0000 0.06420  0.12631  0.47463  Biso   1.000  C 
  H215     1.0000 0.01439  0.21805  0.48781  Biso   1.000  H 
  H216     1.0000 0.11044  0.12180  0.45113  Biso   1.000  H 
  H217     1.0000 0.03559  0.08074  0.46770  Biso   1.000  H 
  C88      1.0000 0.07381  0.13467  0.54483  Biso   1.000  C 
  H218     1.0000 0.08729  0.18022  0.57123  Biso   1.000  H 
  H219     1.0000 0.10919  0.09742  0.55447  Biso   1.000  H 
  H220     1.0000 0.02529  0.12266  0.56267  Biso   1.000  H 
  B379     1.0000 0.50000  0.84640  0.34640  Biso   1.000  B 
  B380     1.0000 0.50000  0.90471  0.32954  Biso   1.000  B 
  B381     1.0000 0.50000  0.82954  0.40471  Biso   1.000  B 
  B382     1.0000 0.50000  0.79500  0.29500  Biso   1.000  B 
  B383     1.0000 0.50000  0.73249  0.31563  Biso   1.000  B 
  N23      1.0000 0.45981  0.72087  0.37642  Biso   1.000  N 
  B384     1.0000 0.50000  0.63051  0.27872  Biso   1.000  B 
  B385     1.0000 0.50000  0.68442  0.26751  Biso   1.000  B 
  B386     1.0000 0.50000  0.70500  0.20500  Biso   1.000  B 
  B387     1.0000 0.50000  0.76751  0.18442  Biso   1.000  B 
  B388     1.0000 0.50000  0.81563  0.23249  Biso   1.000  B 
  B389     1.0000 0.50000  0.86954  0.22128  Biso   1.000  B 
  B390     1.0000 0.50000  0.77872  0.13051  Biso   1.000  B 
  B391     1.0000 0.50000  0.67046  0.09530  Biso   1.000  B 
  B392     1.0000 0.50000  0.65360  0.15360  Biso   1.000  B 
  B393     1.0000 0.50000  0.59529  0.17046  Biso   1.000  B 
  H221     1.0000 0.48492  0.68741  0.40278  Biso   1.000  H 
  C89      1.0000 0.39120  0.70346  0.36052  Biso   1.000  C 
  H222     1.0000 0.38062  0.72054  0.30998  Biso   1.000  H 
  H223     1.0000 0.35974  0.72774  0.39367  Biso   1.000  H 
  C90      1.0000 0.37742  0.63096  0.35785  Biso   1.000  C 
  H224     1.0000 0.32609  0.62277  0.36328  Biso   1.000  H 
  C91      1.0000 0.41609  0.58664  0.40973  Biso   1.000  C 
  H225     1.0000 0.38944  0.61058  0.30919  Biso   1.000  H 
  H226     1.0000 0.46271  0.60277  0.43169  Biso   1.000  H 
  H227     1.0000 0.42925  0.54600  0.37763  Biso   1.000  H 
  C92      1.0000 0.37601  0.55180  0.46147  Biso   1.000  C 
  H228     1.0000 0.38835  0.56923  0.50979  Biso   1.000  H 
  H229     1.0000 0.38197  0.49845  0.45728  Biso   1.000  H 
  H230     1.0000 0.32385  0.56239  0.45295  Biso   1.000  H 
  B394     1.0000 0.50000  0.34640  0.84640  Biso   1.000  B 
  B395     1.0000 0.50000  0.40471  0.82954  Biso   1.000  B 
  B396     1.0000 0.50000  0.32954  0.90471  Biso   1.000  B 
  B397     1.0000 0.50000  0.29500  0.79500  Biso   1.000  B 
  B398     1.0000 0.50000  0.23249  0.81563  Biso   1.000  B 
  N24      1.0000 0.46967  0.21839  0.87998  Biso   1.000  N 
  B399     1.0000 0.50000  0.13051  0.77872  Biso   1.000  B 
  B400     1.0000 0.50000  0.18442  0.76752  Biso   1.000  B 
  B401     1.0000 0.50000  0.20500  0.70501  Biso   1.000  B 
  B402     1.0000 0.50000  0.26751  0.68442  Biso   1.000  B 
  B403     1.0000 0.50000  0.31563  0.73249  Biso   1.000  B 
  B404     1.0000 0.50000  0.36954  0.72128  Biso   1.000  B 
  B405     1.0000 0.50000  0.27872  0.63051  Biso   1.000  B 
  B406     1.0000 0.50000  0.17046  0.59530  Biso   1.000  B 
  B407     1.0000 0.50000  0.15360  0.65361  Biso   1.000  B 
  B408     1.0000 0.50000  0.09529  0.67047  Biso   1.000  B 
  H231     1.0000 0.49971  0.19351  0.91173  Biso   1.000  H 
  C93      1.0000 0.40590  0.18751  0.86552  Biso   1.000  C 
  H232     1.0000 0.38659  0.21019  0.81990  Biso   1.000  H 
  H233     1.0000 0.37103  0.19962  0.90348  Biso   1.000  H 
  C94      1.0000 0.40564  0.11463  0.85041  Biso   1.000  C 
  H234     1.0000 0.35265  0.10869  0.84468  Biso   1.000  H 
  C95      1.0000 0.43243  0.07281  0.90147  Biso   1.000  C 
  H235     1.0000 0.42085  0.09822  0.80504  Biso   1.000  H 
  H236     1.0000 0.47509  0.09511  0.92540  Biso   1.000  H 
  H237     1.0000 0.44388  0.02329  0.88283  Biso   1.000  H 
  C96      1.0000 0.37837  0.06310  0.95036  Biso   1.000  C 
  H238     1.0000 0.37333  0.01117  0.95759  Biso   1.000  H 
  H239     1.0000 0.32773  0.08035  0.93644  Biso   1.000  H 
  H240     1.0000 0.39227  0.08372  0.99740  Biso   1.000  H 
