data_image0
_cell_length_a       20.7004
_cell_length_b       20.7004
_cell_length_c       20.7004
_cell_angle_alpha    90
_cell_angle_beta     90
_cell_angle_gamma    90

_symmetry_space_group_name_H-M    "P 1"
_symmetry_int_tables_number       1

loop_
  _symmetry_equiv_pos_as_xyz
  'x, y, z'

loop_
  _atom_site_label
  _atom_site_occupancy
  _atom_site_fract_x
  _atom_site_fract_y
  _atom_site_fract_z
  _atom_site_thermal_displace_type
  _atom_site_B_iso_or_equiv
  _atom_site_type_symbol
  B1       1.0000 0.11989  0.00000  0.00000  Biso   1.000  B 
  B2       1.0000 0.11989  0.50000  0.50000  Biso   1.000  B 
  B3       1.0000 0.61989  0.00000  0.50000  Biso   1.000  B 
  B4       1.0000 0.61989  0.50000  0.00000  Biso   1.000  B 
  B5       1.0000 0.88011  0.00000  0.00000  Biso   1.000  B 
  B6       1.0000 0.88011  0.50000  0.50000  Biso   1.000  B 
  B7       1.0000 0.38011  0.00000  0.50000  Biso   1.000  B 
  B8       1.0000 0.38011  0.50000  0.00000  Biso   1.000  B 
  B9       1.0000 0.00000  0.11989  0.00000  Biso   1.000  B 
  B10      1.0000 0.00000  0.61989  0.50000  Biso   1.000  B 
  B11      1.0000 0.50000  0.11989  0.50000  Biso   1.000  B 
  B12      1.0000 0.50000  0.61989  0.00000  Biso   1.000  B 
  B13      1.0000 0.00000  0.88011  0.00000  Biso   1.000  B 
  B14      1.0000 0.00000  0.38011  0.50000  Biso   1.000  B 
  B15      1.0000 0.50000  0.88011  0.50000  Biso   1.000  B 
  B16      1.0000 0.50000  0.38011  0.00000  Biso   1.000  B 
  B17      1.0000 0.00000  0.00000  0.11989  Biso   1.000  B 
  B18      1.0000 0.00000  0.50000  0.61989  Biso   1.000  B 
  B19      1.0000 0.50000  0.00000  0.61989  Biso   1.000  B 
  B20      1.0000 0.50000  0.50000  0.11989  Biso   1.000  B 
  B21      1.0000 0.00000  0.00000  0.88011  Biso   1.000  B 
  B22      1.0000 0.00000  0.50000  0.38011  Biso   1.000  B 
  B23      1.0000 0.50000  0.00000  0.38011  Biso   1.000  B 
  B24      1.0000 0.50000  0.50000  0.88011  Biso   1.000  B 
  B25      1.0000 0.05610  0.44390  0.44390  Biso   1.000  B 
  B26      1.0000 0.55610  0.94390  0.44390  Biso   1.000  B 
  B27      1.0000 0.55610  0.44390  0.94390  Biso   1.000  B 
  B28      1.0000 0.44390  0.05610  0.44390  Biso   1.000  B 
  B29      1.0000 0.44390  0.55610  0.94390  Biso   1.000  B 
  B30      1.0000 0.94390  0.94390  0.05610  Biso   1.000  B 
  B31      1.0000 0.94390  0.44390  0.55610  Biso   1.000  B 
  B32      1.0000 0.05610  0.05610  0.05610  Biso   1.000  B 
  B33      1.0000 0.55610  0.55610  0.05610  Biso   1.000  B 
  B34      1.0000 0.94390  0.05610  0.05610  Biso   1.000  B 
  B35      1.0000 0.94390  0.55610  0.55610  Biso   1.000  B 
  B36      1.0000 0.44390  0.05610  0.55610  Biso   1.000  B 
  B37      1.0000 0.44390  0.55610  0.05610  Biso   1.000  B 
  B38      1.0000 0.05610  0.94390  0.05610  Biso   1.000  B 
  B39      1.0000 0.05610  0.44390  0.55610  Biso   1.000  B 
  B40      1.0000 0.55610  0.94390  0.55610  Biso   1.000  B 
  B41      1.0000 0.55610  0.44390  0.05610  Biso   1.000  B 
  B42      1.0000 0.94390  0.94390  0.94390  Biso   1.000  B 
  B43      1.0000 0.94390  0.44390  0.44390  Biso   1.000  B 
  B44      1.0000 0.44390  0.94390  0.44390  Biso   1.000  B 
  B45      1.0000 0.44390  0.44390  0.94390  Biso   1.000  B 
  B46      1.0000 0.05610  0.05610  0.94390  Biso   1.000  B 
  B47      1.0000 0.05610  0.55610  0.44390  Biso   1.000  B 
  B48      1.0000 0.55610  0.05610  0.44390  Biso   1.000  B 
  B49      1.0000 0.15360  0.00000  0.84640  Biso   1.000  B 
  B50      1.0000 0.17046  0.00000  0.90471  Biso   1.000  B 
  B51      1.0000 0.09529  0.00000  0.82954  Biso   1.000  B 
  B52      1.0000 0.20500  0.00000  0.79500  Biso   1.000  B 
  B53      1.0000 0.18437  0.00000  0.73249  Biso   1.000  B 
  N1       1.0000 0.11373  0.99429  0.71087  Biso   1.000  N 
  B54      1.0000 0.22128  0.00000  0.63051  Biso   1.000  B 
  B55      1.0000 0.23249  0.00000  0.68442  Biso   1.000  B 
  B56      1.0000 0.29500  0.00000  0.70500  Biso   1.000  B 
  B57      1.0000 0.31558  0.00000  0.76751  Biso   1.000  B 
  B58      1.0000 0.26751  0.00000  0.81563  Biso   1.000  B 
  B59      1.0000 0.27872  0.00000  0.86954  Biso   1.000  B 
  B60      1.0000 0.36949  0.00000  0.77872  Biso   1.000  B 
  B61      1.0000 0.40470  0.00000  0.67046  Biso   1.000  B 
  B62      1.0000 0.34640  0.00000  0.65360  Biso   1.000  B 
  B63      1.0000 0.32954  0.00000  0.59529  Biso   1.000  B 
  H1       1.0000 0.10807  0.03835  0.68632  Biso   1.000  H 
  C1       1.0000 0.11181  0.94302  0.66250  Biso   1.000  C 
  H2       1.0000 0.13975  0.95103  0.61790  Biso   1.000  H 
  C2       1.0000 0.04663  0.95043  0.63898  Biso   1.000  C 
  C3       1.0000 0.13413  0.87329  0.68341  Biso   1.000  C 
  C4       1.0000 0.07696  0.84837  0.56959  Biso   1.000  C 
  C5       1.0000 0.03099  0.89941  0.59250  Biso   1.000  C 
  H3       1.0000 0.04292  0.99659  0.61079  Biso   1.000  H 
  H4       1.0000 0.01214  0.95553  0.67870  Biso   1.000  H 
  H5       1.0000 0.98999  0.87567  0.61147  Biso   1.000  H 
  H6       1.0000 0.01479  0.92086  0.54634  Biso   1.000  H 
  C6       1.0000 0.11893  0.82575  0.62823  Biso   1.000  C 
  H7       1.0000 0.10252  0.78027  0.64908  Biso   1.000  H 
  H8       1.0000 0.16520  0.81595  0.60580  Biso   1.000  H 
  H9       1.0000 0.18619  0.87306  0.68700  Biso   1.000  H 
  H10      1.0000 0.04934  0.80778  0.54958  Biso   1.000  H 
  H11      1.0000 0.11533  0.85616  0.73130  Biso   1.000  H 
  H12      1.0000 0.10883  0.86937  0.53296  Biso   1.000  H 
  B64      1.0000 0.15360  0.50000  0.34640  Biso   1.000  B 
  B65      1.0000 0.17046  0.50000  0.40471  Biso   1.000  B 
  B66      1.0000 0.09529  0.50000  0.32954  Biso   1.000  B 
  B67      1.0000 0.20500  0.50000  0.29500  Biso   1.000  B 
  B68      1.0000 0.18437  0.50000  0.23249  Biso   1.000  B 
  N2       1.0000 0.11337  0.50325  0.21174  Biso   1.000  N 
  B69      1.0000 0.22128  0.50000  0.13051  Biso   1.000  B 
  B70      1.0000 0.23249  0.50000  0.18442  Biso   1.000  B 
  B71      1.0000 0.29500  0.50000  0.20500  Biso   1.000  B 
  B72      1.0000 0.31558  0.50000  0.26751  Biso   1.000  B 
  B73      1.0000 0.26751  0.50000  0.31563  Biso   1.000  B 
  B74      1.0000 0.27872  0.50000  0.36954  Biso   1.000  B 
  B75      1.0000 0.36949  0.50000  0.27872  Biso   1.000  B 
  B76      1.0000 0.40470  0.50000  0.17046  Biso   1.000  B 
  B77      1.0000 0.34640  0.50000  0.15360  Biso   1.000  B 
  B78      1.0000 0.32954  0.50000  0.09529  Biso   1.000  B 
  H13      1.0000 0.08824  0.46675  0.23540  Biso   1.000  H 
  C7       1.0000 0.10372  0.47900  0.14566  Biso   1.000  C 
  H14      1.0000 0.12790  0.51560  0.11492  Biso   1.000  H 
  C8       1.0000 0.03076  0.47887  0.12796  Biso   1.000  C 
  C9       1.0000 0.13230  0.40981  0.14085  Biso   1.000  C 
  C10      1.0000 0.05297  0.39206  0.04774  Biso   1.000  C 
  C11      1.0000 0.00901  0.41726  0.09596  Biso   1.000  C 
  H15      1.0000 0.02309  0.52011  0.09684  Biso   1.000  H 
  H16      1.0000 0.99983  0.48709  0.17203  Biso   1.000  H 
  H17      1.0000 0.01131  0.38059  0.13050  Biso   1.000  H 
  H18      1.0000 0.96070  0.42272  0.07632  Biso   1.000  H 
  C12      1.0000 0.11877  0.37820  0.07770  Biso   1.000  C 
  H19      1.0000 0.12503  0.32626  0.08612  Biso   1.000  H 
  H20      1.0000 0.15358  0.39796  0.04463  Biso   1.000  H 
  H21      1.0000 0.18529  0.40441  0.14454  Biso   1.000  H 
  H22      1.0000 0.03431  0.35337  0.01690  Biso   1.000  H 
  H23      1.0000 0.11004  0.37987  0.17994  Biso   1.000  H 
  H24      1.0000 0.05717  0.43327  0.01924  Biso   1.000  H 
  B79      1.0000 0.65360  0.00000  0.34640  Biso   1.000  B 
  B80      1.0000 0.67046  0.00000  0.40471  Biso   1.000  B 
  B81      1.0000 0.59529  0.00000  0.32954  Biso   1.000  B 
  B82      1.0000 0.70500  0.00000  0.29500  Biso   1.000  B 
  B83      1.0000 0.68437  0.00000  0.23249  Biso   1.000  B 
  N3       1.0000 0.61302  0.00244  0.21575  Biso   1.000  N 
  B84      1.0000 0.72128  0.00000  0.13051  Biso   1.000  B 
  B85      1.0000 0.73248  0.00000  0.18442  Biso   1.000  B 
  B86      1.0000 0.79499  0.00000  0.20500  Biso   1.000  B 
  B87      1.0000 0.81558  0.00000  0.26751  Biso   1.000  B 
  B88      1.0000 0.76751  0.00000  0.31563  Biso   1.000  B 
  B89      1.0000 0.77872  0.00000  0.36954  Biso   1.000  B 
  B90      1.0000 0.86949  0.00000  0.27872  Biso   1.000  B 
  B91      1.0000 0.90470  0.00000  0.17046  Biso   1.000  B 
  B92      1.0000 0.84639  0.00000  0.15360  Biso   1.000  B 
  B93      1.0000 0.82953  0.00000  0.09529  Biso   1.000  B 
  H25      1.0000 0.60567  0.05077  0.20349  Biso   1.000  H 
  C13      1.0000 0.60539  0.96141  0.16103  Biso   1.000  C 
  H26      1.0000 0.63207  0.98035  0.12072  Biso   1.000  H 
  C14      1.0000 0.53692  0.96673  0.13402  Biso   1.000  C 
  C15      1.0000 0.63059  0.89042  0.17747  Biso   1.000  C 
  C16      1.0000 0.56802  0.86510  0.06698  Biso   1.000  C 
  C17      1.0000 0.53739  0.93305  0.06825  Biso   1.000  C 
  H27      1.0000 0.52820  0.01988  0.12886  Biso   1.000  H 
  H28      1.0000 0.50414  0.94639  0.16941  Biso   1.000  H 
  H29      1.0000 0.48998  0.93718  0.04280  Biso   1.000  H 
  H30      1.0000 0.57007  0.96488  0.03844  Biso   1.000  H 
  C18      1.0000 0.62337  0.85024  0.11689  Biso   1.000  C 
  H31      1.0000 0.61226  0.80147  0.13091  Biso   1.000  H 
  H32      1.0000 0.67212  0.84891  0.09755  Biso   1.000  H 
  H33      1.0000 0.68337  0.88789  0.19449  Biso   1.000  H 
  H34      1.0000 0.53466  0.82454  0.05415  Biso   1.000  H 
  H35      1.0000 0.60144  0.87031  0.21708  Biso   1.000  H 
  H36      1.0000 0.59439  0.86770  0.02467  Biso   1.000  H 
  B94      1.0000 0.65360  0.50000  0.84640  Biso   1.000  B 
  B95      1.0000 0.67046  0.50000  0.90471  Biso   1.000  B 
  B96      1.0000 0.59529  0.50000  0.82954  Biso   1.000  B 
  B97      1.0000 0.70500  0.50000  0.79500  Biso   1.000  B 
  B98      1.0000 0.68437  0.50000  0.73249  Biso   1.000  B 
  N4       1.0000 0.61371  0.49320  0.71511  Biso   1.000  N 
  B99      1.0000 0.72128  0.50000  0.63051  Biso   1.000  B 
  B100     1.0000 0.73248  0.50000  0.68442  Biso   1.000  B 
  B101     1.0000 0.79499  0.50000  0.70500  Biso   1.000  B 
  B102     1.0000 0.81558  0.50000  0.76751  Biso   1.000  B 
  B103     1.0000 0.76751  0.50000  0.81563  Biso   1.000  B 
  B104     1.0000 0.77872  0.50000  0.86954  Biso   1.000  B 
  B105     1.0000 0.86949  0.50000  0.77872  Biso   1.000  B 
  B106     1.0000 0.90470  0.50000  0.67046  Biso   1.000  B 
  B107     1.0000 0.84639  0.50000  0.65360  Biso   1.000  B 
  B108     1.0000 0.82953  0.50000  0.59529  Biso   1.000  B 
  H37      1.0000 0.59446  0.45161  0.73534  Biso   1.000  H 
  C19      1.0000 0.60500  0.48063  0.64695  Biso   1.000  C 
  H38      1.0000 0.62867  0.51926  0.61948  Biso   1.000  H 
  C20      1.0000 0.53569  0.49106  0.62209  Biso   1.000  C 
  C21      1.0000 0.63079  0.40994  0.63119  Biso   1.000  C 
  C22      1.0000 0.54250  0.38995  0.54820  Biso   1.000  C 
  C23      1.0000 0.50582  0.42929  0.59751  Biso   1.000  C 
  H39      1.0000 0.53566  0.52556  0.58114  Biso   1.000  H 
  H40      1.0000 0.50669  0.51390  0.66095  Biso   1.000  H 
  H41      1.0000 0.50977  0.39678  0.63528  Biso   1.000  H 
  H42      1.0000 0.45470  0.43179  0.58524  Biso   1.000  H 
  C24      1.0000 0.61361  0.38619  0.56655  Biso   1.000  C 
  H43      1.0000 0.62796  0.33664  0.57313  Biso   1.000  H 
  H44      1.0000 0.64234  0.40748  0.52945  Biso   1.000  H 
  H45      1.0000 0.68358  0.40202  0.63494  Biso   1.000  H 
  H46      1.0000 0.52251  0.34035  0.54117  Biso   1.000  H 
  H47      1.0000 0.60697  0.37469  0.66402  Biso   1.000  H 
  H48      1.0000 0.53522  0.41752  0.50357  Biso   1.000  H 
  B109     1.0000 0.84640  0.00000  0.84640  Biso   1.000  B 
  B110     1.0000 0.82954  0.00000  0.90471  Biso   1.000  B 
  B111     1.0000 0.90471  0.00000  0.82954  Biso   1.000  B 
  B112     1.0000 0.79500  0.00000  0.79500  Biso   1.000  B 
  B113     1.0000 0.81563  0.00000  0.73249  Biso   1.000  B 
  N5       1.0000 0.87200  0.95772  0.71102  Biso   1.000  N 
  B114     1.0000 0.77872  0.00000  0.63051  Biso   1.000  B 
  B115     1.0000 0.76752  0.00000  0.68442  Biso   1.000  B 
  B116     1.0000 0.70501  0.00000  0.70500  Biso   1.000  B 
  B117     1.0000 0.68442  0.00000  0.76751  Biso   1.000  B 
  B118     1.0000 0.73249  0.00000  0.81563  Biso   1.000  B 
  B119     1.0000 0.72128  0.00000  0.86954  Biso   1.000  B 
  B120     1.0000 0.63051  0.00000  0.77872  Biso   1.000  B 
  B121     1.0000 0.59530  0.00000  0.67046  Biso   1.000  B 
  B122     1.0000 0.65361  0.00000  0.65360  Biso   1.000  B 
  B123     1.0000 0.67047  0.00000  0.59529  Biso   1.000  B 
  H49      1.0000 0.91432  0.95312  0.73896  Biso   1.000  H 
  C25      1.0000 0.84278  0.89568  0.68320  Biso   1.000  C 
  H50      1.0000 0.79071  0.89593  0.67496  Biso   1.000  H 
  C26      1.0000 0.83999  0.84332  0.73229  Biso   1.000  C 
  C27      1.0000 0.86005  0.87582  0.61440  Biso   1.000  C 
  C28      1.0000 0.83647  0.75732  0.64542  Biso   1.000  C 
  C29      1.0000 0.80381  0.78255  0.70396  Biso   1.000  C 
  H51      1.0000 0.81576  0.86370  0.77399  Biso   1.000  H 
  H52      1.0000 0.88706  0.82780  0.74735  Biso   1.000  H 
  H53      1.0000 0.80312  0.73957  0.73397  Biso   1.000  H 
  H54      1.0000 0.75429  0.79500  0.69154  Biso   1.000  H 
  C30      1.0000 0.88135  0.80690  0.61742  Biso   1.000  C 
  H55      1.0000 0.91370  0.81764  0.65212  Biso   1.000  H 
  H56      1.0000 0.91130  0.78669  0.58014  Biso   1.000  H 
  H57      1.0000 0.81910  0.88255  0.58307  Biso   1.000  H 
  H58      1.0000 0.86560  0.71351  0.65657  Biso   1.000  H 
  H59      1.0000 0.89788  0.90696  0.59693  Biso   1.000  H 
  H60      1.0000 0.79763  0.74210  0.61263  Biso   1.000  H 
  B124     1.0000 0.84640  0.50000  0.34640  Biso   1.000  B 
  B125     1.0000 0.82954  0.50000  0.40471  Biso   1.000  B 
  B126     1.0000 0.90471  0.50000  0.32954  Biso   1.000  B 
  B127     1.0000 0.79500  0.50000  0.29500  Biso   1.000  B 
  B128     1.0000 0.81563  0.50000  0.23249  Biso   1.000  B 
  N6       1.0000 0.87133  0.45581  0.21241  Biso   1.000  N 
  B129     1.0000 0.77872  0.50000  0.13051  Biso   1.000  B 
  B130     1.0000 0.76752  0.50000  0.18442  Biso   1.000  B 
  B131     1.0000 0.70501  0.50000  0.20500  Biso   1.000  B 
  B132     1.0000 0.68442  0.50000  0.26751  Biso   1.000  B 
  B133     1.0000 0.73249  0.50000  0.31563  Biso   1.000  B 
  B134     1.0000 0.72128  0.50000  0.36954  Biso   1.000  B 
  B135     1.0000 0.63051  0.50000  0.27872  Biso   1.000  B 
  B136     1.0000 0.59530  0.50000  0.17046  Biso   1.000  B 
  B137     1.0000 0.65361  0.50000  0.15360  Biso   1.000  B 
  B138     1.0000 0.67047  0.50000  0.09529  Biso   1.000  B 
  H61      1.0000 0.91171  0.44713  0.23990  Biso   1.000  H 
  C31      1.0000 0.83734  0.39460  0.19179  Biso   1.000  C 
  H62      1.0000 0.78620  0.39370  0.20213  Biso   1.000  H 
  C32      1.0000 0.85479  0.33323  0.23102  Biso   1.000  C 
  C33      1.0000 0.83915  0.38852  0.11953  Biso   1.000  C 
  C34      1.0000 0.85382  0.27215  0.12368  Biso   1.000  C 
  C35      1.0000 0.84766  0.26598  0.19669  Biso   1.000  C 
  H63      1.0000 0.82452  0.33256  0.26860  Biso   1.000  H 
  H64      1.0000 0.89863  0.34428  0.25373  Biso   1.000  H 
  H65      1.0000 0.88109  0.22843  0.21190  Biso   1.000  H 
  H66      1.0000 0.79907  0.24702  0.20757  Biso   1.000  H 
  C36      1.0000 0.88377  0.33586  0.10272  Biso   1.000  C 
  H67      1.0000 0.92501  0.34339  0.13241  Biso   1.000  H 
  H68      1.0000 0.90056  0.34517  0.05439  Biso   1.000  H 
  H69      1.0000 0.78951  0.37636  0.10374  Biso   1.000  H 
  H70      1.0000 0.87942  0.23068  0.10285  Biso   1.000  H 
  H71      1.0000 0.85395  0.43437  0.09621  Biso   1.000  H 
  H72      1.0000 0.80204  0.27008  0.11163  Biso   1.000  H 
  B139     1.0000 0.34640  0.00000  0.34640  Biso   1.000  B 
  B140     1.0000 0.32954  0.00000  0.40471  Biso   1.000  B 
  B141     1.0000 0.40471  0.00000  0.32954  Biso   1.000  B 
  B142     1.0000 0.29500  0.00000  0.29500  Biso   1.000  B 
  B143     1.0000 0.31563  0.00000  0.23249  Biso   1.000  B 
  N7       1.0000 0.37965  0.97160  0.21545  Biso   1.000  N 
  B144     1.0000 0.27872  0.00000  0.13051  Biso   1.000  B 
  B145     1.0000 0.26751  0.00000  0.18442  Biso   1.000  B 
  B146     1.0000 0.20500  0.00000  0.20500  Biso   1.000  B 
  B147     1.0000 0.18442  0.00000  0.26751  Biso   1.000  B 
  B148     1.0000 0.23249  0.00000  0.31563  Biso   1.000  B 
  B149     1.0000 0.22128  0.00000  0.36954  Biso   1.000  B 
  B150     1.0000 0.13051  0.00000  0.27872  Biso   1.000  B 
  B151     1.0000 0.09530  0.00000  0.17046  Biso   1.000  B 
  B152     1.0000 0.15360  0.00000  0.15360  Biso   1.000  B 
  B153     1.0000 0.17046  0.00000  0.09529  Biso   1.000  B 
  H73      1.0000 0.41190  0.00586  0.19414  Biso   1.000  H 
  C37      1.0000 0.35944  0.91433  0.17783  Biso   1.000  C 
  H74      1.0000 0.30836  0.90431  0.16807  Biso   1.000  H 
  C38      1.0000 0.36400  0.85801  0.22364  Biso   1.000  C 
  C39      1.0000 0.37772  0.91283  0.10707  Biso   1.000  C 
  C40      1.0000 0.36648  0.79237  0.12218  Biso   1.000  C 
  C41      1.0000 0.35788  0.79237  0.19384  Biso   1.000  C 
  H75      1.0000 0.32201  0.86431  0.25302  Biso   1.000  H 
  H76      1.0000 0.40325  0.86631  0.25444  Biso   1.000  H 
  H77      1.0000 0.39340  0.76416  0.21476  Biso   1.000  H 
  H78      1.0000 0.31104  0.76895  0.20416  Biso   1.000  H 
  C42      1.0000 0.40839  0.85013  0.09673  Biso   1.000  C 
  H79      1.0000 0.45171  0.85895  0.12547  Biso   1.000  H 
  H80      1.0000 0.42615  0.84563  0.04680  Biso   1.000  H 
  H81      1.0000 0.33757  0.92032  0.07169  Biso   1.000  H 
  H82      1.0000 0.38411  0.74490  0.10478  Biso   1.000  H 
  H83      1.0000 0.41178  0.94948  0.09947  Biso   1.000  H 
  H84      1.0000 0.31565  0.80028  0.10936  Biso   1.000  H 
  B154     1.0000 0.34640  0.50000  0.84640  Biso   1.000  B 
  B155     1.0000 0.32954  0.50000  0.90471  Biso   1.000  B 
  B156     1.0000 0.40471  0.50000  0.82954  Biso   1.000  B 
  B157     1.0000 0.29500  0.50000  0.79500  Biso   1.000  B 
  B158     1.0000 0.31563  0.50000  0.73249  Biso   1.000  B 
  N8       1.0000 0.37006  0.45137  0.71476  Biso   1.000  N 
  B159     1.0000 0.27872  0.50000  0.63051  Biso   1.000  B 
  B160     1.0000 0.26751  0.50000  0.68442  Biso   1.000  B 
  B161     1.0000 0.20500  0.50000  0.70500  Biso   1.000  B 
  B162     1.0000 0.18442  0.50000  0.76751  Biso   1.000  B 
  B163     1.0000 0.23249  0.50000  0.81563  Biso   1.000  B 
  B164     1.0000 0.22128  0.50000  0.86954  Biso   1.000  B 
  B165     1.0000 0.13051  0.50000  0.77872  Biso   1.000  B 
  B166     1.0000 0.09530  0.50000  0.67046  Biso   1.000  B 
  B167     1.0000 0.15360  0.50000  0.65360  Biso   1.000  B 
  B168     1.0000 0.17046  0.50000  0.59529  Biso   1.000  B 
  H85      1.0000 0.41074  0.44383  0.74358  Biso   1.000  H 
  C43      1.0000 0.33325  0.39141  0.69842  Biso   1.000  C 
  H86      1.0000 0.28216  0.39284  0.71117  Biso   1.000  H 
  C44      1.0000 0.35414  0.33277  0.73504  Biso   1.000  C 
  C45      1.0000 0.33634  0.38416  0.62444  Biso   1.000  C 
  C46      1.0000 0.36045  0.26884  0.63150  Biso   1.000  C 
  C47      1.0000 0.35014  0.26608  0.70117  Biso   1.000  C 
  H87      1.0000 0.32551  0.33382  0.77266  Biso   1.000  H 
  H88      1.0000 0.39836  0.34296  0.75508  Biso   1.000  H 
  H89      1.0000 0.38664  0.23422  0.72004  Biso   1.000  H 
  H90      1.0000 0.30398  0.24218  0.70949  Biso   1.000  H 
  C48      1.0000 0.38646  0.33308  0.61123  Biso   1.000  C 
  H91      1.0000 0.42534  0.34526  0.64297  Biso   1.000  H 
  H92      1.0000 0.40696  0.33849  0.56339  Biso   1.000  H 
  H93      1.0000 0.28774  0.36955  0.60928  Biso   1.000  H 
  H94      1.0000 0.39506  0.23095  0.61626  Biso   1.000  H 
  H95      1.0000 0.34703  0.43036  0.60135  Biso   1.000  H 
  H96      1.0000 0.31256  0.25941  0.61140  Biso   1.000  H 
  B169     1.0000 0.84640  0.15360  0.00000  Biso   1.000  B 
  B170     1.0000 0.90471  0.17046  0.00000  Biso   1.000  B 
  B171     1.0000 0.82954  0.09529  0.00000  Biso   1.000  B 
  B172     1.0000 0.79500  0.20500  0.00000  Biso   1.000  B 
  B173     1.0000 0.73249  0.18437  0.00000  Biso   1.000  B 
  N9       1.0000 0.71453  0.11560  0.00157  Biso   1.000  N 
  B174     1.0000 0.63051  0.22128  0.00000  Biso   1.000  B 
  B175     1.0000 0.68442  0.23249  0.00000  Biso   1.000  B 
  B176     1.0000 0.70500  0.29500  0.00000  Biso   1.000  B 
  B177     1.0000 0.76751  0.31558  0.00000  Biso   1.000  B 
  B178     1.0000 0.81563  0.26751  0.00000  Biso   1.000  B 
  B179     1.0000 0.86954  0.27872  0.00000  Biso   1.000  B 
  B180     1.0000 0.77872  0.36949  0.00000  Biso   1.000  B 
  B181     1.0000 0.67046  0.40470  0.00000  Biso   1.000  B 
  B182     1.0000 0.65360  0.34640  0.00000  Biso   1.000  B 
  B183     1.0000 0.59529  0.32954  0.00000  Biso   1.000  B 
  H97      1.0000 0.71201  0.09213  0.04728  Biso   1.000  H 
  C49      1.0000 0.66565  0.10882  0.95065  Biso   1.000  C 
  H98      1.0000 0.62610  0.13962  0.96096  Biso   1.000  H 
  C50      1.0000 0.63088  0.04553  0.96173  Biso   1.000  C 
  C51      1.0000 0.68534  0.13179  0.87815  Biso   1.000  C 
  C52      1.0000 0.56963  0.07593  0.85999  Biso   1.000  C 
  C53      1.0000 0.56719  0.04814  0.92471  Biso   1.000  C 
  H99      1.0000 0.62286  0.03995  0.01465  Biso   1.000  H 
  H100     1.0000 0.65993  0.00516  0.95018  Biso   1.000  H 
  H101     1.0000 0.53901  0.00130  0.92594  Biso   1.000  H 
  H102     1.0000 0.53757  0.08075  0.95497  Biso   1.000  H 
  C54      1.0000 0.62652  0.12072  0.83168  Biso   1.000  C 
  H103     1.0000 0.63913  0.10947  0.78218  Biso   1.000  H 
  H104     1.0000 0.60703  0.16985  0.83308  Biso   1.000  H 
  H105     1.0000 0.69705  0.18576  0.88194  Biso   1.000  H 
  H106     1.0000 0.55653  0.03878  0.82500  Biso   1.000  H 
  H107     1.0000 0.72879  0.10771  0.86447  Biso   1.000  H 
  H108     1.0000 0.53161  0.10726  0.86454  Biso   1.000  H 
  B184     1.0000 0.84640  0.65360  0.50000  Biso   1.000  B 
  B185     1.0000 0.90471  0.67046  0.50000  Biso   1.000  B 
  B186     1.0000 0.82954  0.59529  0.50000  Biso   1.000  B 
  B187     1.0000 0.79500  0.70500  0.50000  Biso   1.000  B 
  B188     1.0000 0.73249  0.68437  0.50000  Biso   1.000  B 
  N10      1.0000 0.71650  0.61383  0.48967  Biso   1.000  N 
  B189     1.0000 0.63051  0.72128  0.50000  Biso   1.000  B 
  B190     1.0000 0.68442  0.73248  0.50000  Biso   1.000  B 
  B191     1.0000 0.70500  0.79499  0.50000  Biso   1.000  B 
  B192     1.0000 0.76751  0.81558  0.50000  Biso   1.000  B 
  B193     1.0000 0.81563  0.76751  0.50000  Biso   1.000  B 
  B194     1.0000 0.86954  0.77872  0.50000  Biso   1.000  B 
  B195     1.0000 0.77872  0.86949  0.50000  Biso   1.000  B 
  B196     1.0000 0.67046  0.90470  0.50000  Biso   1.000  B 
  B197     1.0000 0.65360  0.84639  0.50000  Biso   1.000  B 
  B198     1.0000 0.59529  0.82953  0.50000  Biso   1.000  B 
  H109     1.0000 0.73786  0.59913  0.44639  Biso   1.000  H 
  C55      1.0000 0.64952  0.59566  0.47535  Biso   1.000  C 
  H110     1.0000 0.61899  0.61720  0.51208  Biso   1.000  H 
  C56      1.0000 0.64504  0.52267  0.47725  Biso   1.000  C 
  C57      1.0000 0.62821  0.62230  0.40787  Biso   1.000  C 
  C58      1.0000 0.54445  0.52903  0.41401  Biso   1.000  C 
  C59      1.0000 0.60494  0.49322  0.42628  Biso   1.000  C 
  H111     1.0000 0.62213  0.50911  0.52211  Biso   1.000  H 
  H112     1.0000 0.69373  0.50023  0.47259  Biso   1.000  H 
  H113     1.0000 0.62911  0.49392  0.38362  Biso   1.000  H 
  H114     1.0000 0.59759  0.44338  0.43829  Biso   1.000  H 
  C60      1.0000 0.56210  0.59461  0.38736  Biso   1.000  C 
  H115     1.0000 0.56634  0.58776  0.33634  Biso   1.000  H 
  H116     1.0000 0.52541  0.63164  0.39939  Biso   1.000  H 
  H117     1.0000 0.62358  0.67551  0.40207  Biso   1.000  H 
  H118     1.0000 0.51517  0.50420  0.37752  Biso   1.000  H 
  H119     1.0000 0.66381  0.60457  0.37161  Biso   1.000  H 
  H120     1.0000 0.51725  0.52634  0.46016  Biso   1.000  H 
  B199     1.0000 0.34640  0.15360  0.50000  Biso   1.000  B 
  B200     1.0000 0.40471  0.17046  0.50000  Biso   1.000  B 
  B201     1.0000 0.32954  0.09529  0.50000  Biso   1.000  B 
  B202     1.0000 0.29500  0.20500  0.50000  Biso   1.000  B 
  B203     1.0000 0.23249  0.18437  0.50000  Biso   1.000  B 
  N11      1.0000 0.21640  0.11349  0.48671  Biso   1.000  N 
  B204     1.0000 0.13051  0.22128  0.50000  Biso   1.000  B 
  B205     1.0000 0.18442  0.23249  0.50000  Biso   1.000  B 
  B206     1.0000 0.20500  0.29500  0.50000  Biso   1.000  B 
  B207     1.0000 0.26751  0.31558  0.50000  Biso   1.000  B 
  B208     1.0000 0.31563  0.26751  0.50000  Biso   1.000  B 
  B209     1.0000 0.36954  0.27872  0.50000  Biso   1.000  B 
  B210     1.0000 0.27872  0.36949  0.50000  Biso   1.000  B 
  B211     1.0000 0.17046  0.40470  0.50000  Biso   1.000  B 
  B212     1.0000 0.15360  0.34640  0.50000  Biso   1.000  B 
  B213     1.0000 0.09529  0.32954  0.50000  Biso   1.000  B 
  H121     1.0000 0.23992  0.09780  0.44485  Biso   1.000  H 
  C61      1.0000 0.14762  0.09873  0.47370  Biso   1.000  C 
  H122     1.0000 0.11400  0.12651  0.50525  Biso   1.000  H 
  C62      1.0000 0.13402  0.03083  0.49962  Biso   1.000  C 
  C63      1.0000 0.13160  0.11012  0.40021  Biso   1.000  C 
  C64      1.0000 0.04547  0.02042  0.41241  Biso   1.000  C 
  C65      1.0000 0.09802  0.98835  0.45240  Biso   1.000  C 
  H123     1.0000 0.10781  0.03302  0.54678  Biso   1.000  H 
  H124     1.0000 0.18050  0.00470  0.50765  Biso   1.000  H 
  H125     1.0000 0.13618  0.97776  0.41893  Biso   1.000  H 
  H126     1.0000 0.08333  0.94336  0.47189  Biso   1.000  H 
  C66      1.0000 0.06226  0.08963  0.39380  Biso   1.000  C 
  H127     1.0000 0.05645  0.08993  0.34205  Biso   1.000  H 
  H128     1.0000 0.03206  0.12657  0.41842  Biso   1.000  H 
  H129     1.0000 0.13873  0.16218  0.38880  Biso   1.000  H 
  H130     1.0000 0.03681  0.98974  0.36913  Biso   1.000  H 
  H131     1.0000 0.16208  0.08168  0.36895  Biso   1.000  H 
  H132     1.0000 0.00051  0.02178  0.44108  Biso   1.000  H 
  B214     1.0000 0.34640  0.65360  0.00000  Biso   1.000  B 
  B215     1.0000 0.40471  0.67046  0.00000  Biso   1.000  B 
  B216     1.0000 0.32954  0.59529  0.00000  Biso   1.000  B 
  B217     1.0000 0.29500  0.70500  0.00000  Biso   1.000  B 
  B218     1.0000 0.23249  0.68437  0.00000  Biso   1.000  B 
  N12      1.0000 0.21396  0.61322  0.98915  Biso   1.000  N 
  B219     1.0000 0.13051  0.72128  0.00000  Biso   1.000  B 
  B220     1.0000 0.18442  0.73248  0.00000  Biso   1.000  B 
  B221     1.0000 0.20500  0.79499  0.00000  Biso   1.000  B 
  B222     1.0000 0.26751  0.81558  0.00000  Biso   1.000  B 
  B223     1.0000 0.31563  0.76751  0.00000  Biso   1.000  B 
  B224     1.0000 0.36954  0.77872  0.00000  Biso   1.000  B 
  B225     1.0000 0.27872  0.86949  0.00000  Biso   1.000  B 
  B226     1.0000 0.17046  0.90470  0.00000  Biso   1.000  B 
  B227     1.0000 0.15360  0.84639  0.00000  Biso   1.000  B 
  B228     1.0000 0.09529  0.82953  0.00000  Biso   1.000  B 
  H133     1.0000 0.23834  0.59978  0.94640  Biso   1.000  H 
  C67      1.0000 0.14641  0.59555  0.97595  Biso   1.000  C 
  H134     1.0000 0.11588  0.61490  0.01344  Biso   1.000  H 
  C68      1.0000 0.13998  0.52057  0.97433  Biso   1.000  C 
  C69      1.0000 0.12777  0.61617  0.90763  Biso   1.000  C 
  C70      1.0000 0.03739  0.53204  0.91200  Biso   1.000  C 
  C71      1.0000 0.09670  0.49099  0.92313  Biso   1.000  C 
  H135     1.0000 0.11686  0.50884  0.01914  Biso   1.000  H 
  H136     1.0000 0.18857  0.49876  0.97162  Biso   1.000  H 
  H137     1.0000 0.12082  0.49534  0.87850  Biso   1.000  H 
  H138     1.0000 0.08171  0.44173  0.92667  Biso   1.000  H 
  C72      1.0000 0.05938  0.59676  0.88570  Biso   1.000  C 
  H139     1.0000 0.06526  0.59085  0.83243  Biso   1.000  H 
  H140     1.0000 0.02909  0.63780  0.89996  Biso   1.000  H 
  H141     1.0000 0.13639  0.66790  0.90077  Biso   1.000  H 
  H142     1.0000 0.00590  0.50899  0.87636  Biso   1.000  H 
  H143     1.0000 0.15835  0.59077  0.87172  Biso   1.000  H 
  H144     1.0000 0.01370  0.53416  0.95880  Biso   1.000  H 
  B229     1.0000 0.84640  0.84640  0.00000  Biso   1.000  B 
  B230     1.0000 0.90471  0.82954  0.00000  Biso   1.000  B 
  B231     1.0000 0.82954  0.90471  0.00000  Biso   1.000  B 
  B232     1.0000 0.79500  0.79500  0.00000  Biso   1.000  B 
  B233     1.0000 0.73249  0.81563  0.00000  Biso   1.000  B 
  N13      1.0000 0.70986  0.87923  0.97882  Biso   1.000  N 
  B234     1.0000 0.63051  0.77872  0.00000  Biso   1.000  B 
  B235     1.0000 0.68442  0.76752  0.00000  Biso   1.000  B 
  B236     1.0000 0.70500  0.70501  0.00000  Biso   1.000  B 
  B237     1.0000 0.76751  0.68442  0.00000  Biso   1.000  B 
  B238     1.0000 0.81563  0.73249  0.00000  Biso   1.000  B 
  B239     1.0000 0.86954  0.72128  0.00000  Biso   1.000  B 
  B240     1.0000 0.77872  0.63051  0.00000  Biso   1.000  B 
  B241     1.0000 0.67046  0.59530  0.00000  Biso   1.000  B 
  B242     1.0000 0.65360  0.65361  0.00000  Biso   1.000  B 
  B243     1.0000 0.59529  0.67047  0.00000  Biso   1.000  B 
  H145     1.0000 0.68577  0.91175  0.01188  Biso   1.000  H 
  C73      1.0000 0.67636  0.86506  0.91542  Biso   1.000  C 
  H146     1.0000 0.66661  0.81259  0.90520  Biso   1.000  H 
  C74      1.0000 0.71963  0.86699  0.85821  Biso   1.000  C 
  C75      1.0000 0.60446  0.88207  0.90957  Biso   1.000  C 
  C76      1.0000 0.61987  0.86685  0.79109  Biso   1.000  C 
  C77      1.0000 0.69166  0.85209  0.79053  Biso   1.000  C 
  H147     1.0000 0.75435  0.83139  0.87036  Biso   1.000  H 
  H148     1.0000 0.74819  0.90585  0.86353  Biso   1.000  H 
  H149     1.0000 0.71634  0.87913  0.75328  Biso   1.000  H 
  H150     1.0000 0.69867  0.80150  0.78080  Biso   1.000  H 
  C78      1.0000 0.59389  0.91033  0.84521  Biso   1.000  C 
  H151     1.0000 0.62701  0.95038  0.85569  Biso   1.000  H 
  H152     1.0000 0.54544  0.93021  0.83977  Biso   1.000  H 
  H153     1.0000 0.57077  0.83866  0.91668  Biso   1.000  H 
  H154     1.0000 0.60512  0.88537  0.74243  Biso   1.000  H 
  H155     1.0000 0.58724  0.91656  0.94522  Biso   1.000  H 
  H156     1.0000 0.60480  0.81666  0.80027  Biso   1.000  H 
  B244     1.0000 0.84640  0.34640  0.50000  Biso   1.000  B 
  B245     1.0000 0.90471  0.32954  0.50000  Biso   1.000  B 
  B246     1.0000 0.82954  0.40471  0.50000  Biso   1.000  B 
  B247     1.0000 0.79500  0.29500  0.50000  Biso   1.000  B 
  B248     1.0000 0.73249  0.31563  0.50000  Biso   1.000  B 
  N14      1.0000 0.71362  0.37033  0.45189  Biso   1.000  N 
  B249     1.0000 0.63051  0.27872  0.50000  Biso   1.000  B 
  B250     1.0000 0.68442  0.26751  0.50000  Biso   1.000  B 
  B251     1.0000 0.70500  0.20500  0.50000  Biso   1.000  B 
  B252     1.0000 0.76751  0.18442  0.50000  Biso   1.000  B 
  B253     1.0000 0.81563  0.23249  0.50000  Biso   1.000  B 
  B254     1.0000 0.86954  0.22128  0.50000  Biso   1.000  B 
  B255     1.0000 0.77872  0.13051  0.50000  Biso   1.000  B 
  B256     1.0000 0.67046  0.09530  0.50000  Biso   1.000  B 
  B257     1.0000 0.65360  0.15360  0.50000  Biso   1.000  B 
  B258     1.0000 0.59529  0.17046  0.50000  Biso   1.000  B 
  H157     1.0000 0.74797  0.40337  0.43669  Biso   1.000  H 
  C79      1.0000 0.69208  0.33193  0.39277  Biso   1.000  C 
  H158     1.0000 0.69723  0.27937  0.39496  Biso   1.000  H 
  C80      1.0000 0.73344  0.33830  0.33438  Biso   1.000  C 
  C81      1.0000 0.61978  0.33384  0.37763  Biso   1.000  C 
  C82      1.0000 0.63615  0.35370  0.26014  Biso   1.000  C 
  C83      1.0000 0.69812  0.31515  0.27164  Biso   1.000  C 
  H159     1.0000 0.77698  0.31400  0.34627  Biso   1.000  H 
  H160     1.0000 0.74778  0.38778  0.32691  Biso   1.000  H 
  H161     1.0000 0.72547  0.32130  0.22827  Biso   1.000  H 
  H162     1.0000 0.68516  0.26269  0.27836  Biso   1.000  H 
  C84      1.0000 0.61144  0.38168  0.32361  Biso   1.000  C 
  H163     1.0000 0.64638  0.41651  0.33472  Biso   1.000  H 
  H164     1.0000 0.56654  0.41085  0.32507  Biso   1.000  H 
  H165     1.0000 0.60480  0.28525  0.36272  Biso   1.000  H 
  H166     1.0000 0.63928  0.38976  0.22160  Biso   1.000  H 
  H167     1.0000 0.59368  0.34623  0.42215  Biso   1.000  H 
  H168     1.0000 0.60834  0.31534  0.24070  Biso   1.000  H 
  B259     1.0000 0.34640  0.84640  0.50000  Biso   1.000  B 
  B260     1.0000 0.40471  0.82954  0.50000  Biso   1.000  B 
  B261     1.0000 0.32954  0.90471  0.50000  Biso   1.000  B 
  B262     1.0000 0.29500  0.79500  0.50000  Biso   1.000  B 
  B263     1.0000 0.23249  0.81563  0.50000  Biso   1.000  B 
  N15      1.0000 0.21137  0.87270  0.45899  Biso   1.000  N 
  B264     1.0000 0.13051  0.77872  0.50000  Biso   1.000  B 
  B265     1.0000 0.18442  0.76752  0.50000  Biso   1.000  B 
  B266     1.0000 0.20500  0.70501  0.50000  Biso   1.000  B 
  B267     1.0000 0.26751  0.68442  0.50000  Biso   1.000  B 
  B268     1.0000 0.31563  0.73249  0.50000  Biso   1.000  B 
  B269     1.0000 0.36954  0.72128  0.50000  Biso   1.000  B 
  B270     1.0000 0.27872  0.63051  0.50000  Biso   1.000  B 
  B271     1.0000 0.17046  0.59530  0.50000  Biso   1.000  B 
  B272     1.0000 0.15360  0.65361  0.50000  Biso   1.000  B 
  B273     1.0000 0.09529  0.67047  0.50000  Biso   1.000  B 
  H169     1.0000 0.23936  0.91426  0.45038  Biso   1.000  H 
  C85      1.0000 0.19351  0.84179  0.39614  Biso   1.000  C 
  H170     1.0000 0.20437  0.78852  0.39356  Biso   1.000  H 
  C86      1.0000 0.23460  0.86230  0.33913  Biso   1.000  C 
  C87      1.0000 0.12060  0.83852  0.38826  Biso   1.000  C 
  C88      1.0000 0.12932  0.85746  0.26876  Biso   1.000  C 
  C89      1.0000 0.20368  0.85110  0.27051  Biso   1.000  C 
  H171     1.0000 0.27375  0.83162  0.34042  Biso   1.000  H 
  H172     1.0000 0.25693  0.90409  0.35389  Biso   1.000  H 
  H173     1.0000 0.22295  0.88508  0.23480  Biso   1.000  H 
  H174     1.0000 0.21712  0.80208  0.25499  Biso   1.000  H 
  C90      1.0000 0.10308  0.88219  0.33448  Biso   1.000  C 
  H175     1.0000 0.12853  0.92552  0.34265  Biso   1.000  H 
  H176     1.0000 0.05297  0.89092  0.34864  Biso   1.000  H 
  H177     1.0000 0.10894  0.78647  0.37417  Biso   1.000  H 
  H178     1.0000 0.10973  0.88297  0.22725  Biso   1.000  H 
  H179     1.0000 0.09337  0.84791  0.43164  Biso   1.000  H 
  H180     1.0000 0.11531  0.80671  0.26597  Biso   1.000  H 
  B274     1.0000 0.34640  0.34640  0.00000  Biso   1.000  B 
  B275     1.0000 0.40471  0.32954  0.00000  Biso   1.000  B 
  B276     1.0000 0.32954  0.40471  0.00000  Biso   1.000  B 
  B277     1.0000 0.29500  0.29500  0.00000  Biso   1.000  B 
  B278     1.0000 0.23249  0.31563  0.00000  Biso   1.000  B 
  N16      1.0000 0.21222  0.36804  0.95050  Biso   1.000  N 
  B279     1.0000 0.13051  0.27872  0.00000  Biso   1.000  B 
  B280     1.0000 0.18442  0.26751  0.00000  Biso   1.000  B 
  B281     1.0000 0.20500  0.20500  0.00000  Biso   1.000  B 
  B282     1.0000 0.26751  0.18442  0.00000  Biso   1.000  B 
  B283     1.0000 0.31563  0.23249  0.00000  Biso   1.000  B 
  B284     1.0000 0.36954  0.22128  0.00000  Biso   1.000  B 
  B285     1.0000 0.27872  0.13051  0.00000  Biso   1.000  B 
  B286     1.0000 0.17046  0.09530  0.00000  Biso   1.000  B 
  B287     1.0000 0.15360  0.15360  0.00000  Biso   1.000  B 
  B288     1.0000 0.09529  0.17046  0.00000  Biso   1.000  B 
  H181     1.0000 0.24308  0.40659  0.94186  Biso   1.000  H 
  C91      1.0000 0.19258  0.33148  0.89015  Biso   1.000  C 
  H182     1.0000 0.19353  0.28108  0.89488  Biso   1.000  H 
  C92      1.0000 0.23625  0.33816  0.83571  Biso   1.000  C 
  C93      1.0000 0.12039  0.33359  0.87338  Biso   1.000  C 
  C94      1.0000 0.14508  0.35318  0.75434  Biso   1.000  C 
  C95      1.0000 0.20174  0.30983  0.77434  Biso   1.000  C 
  H183     1.0000 0.27865  0.31639  0.85223  Biso   1.000  H 
  H184     1.0000 0.24837  0.38935  0.82557  Biso   1.000  H 
  H185     1.0000 0.22984  0.30377  0.73143  Biso   1.000  H 
  H186     1.0000 0.18243  0.26098  0.78642  Biso   1.000  H 
  C96      1.0000 0.11475  0.38016  0.81531  Biso   1.000  C 
  H187     1.0000 0.14776  0.41486  0.83254  Biso   1.000  H 
  H188     1.0000 0.07388  0.40873  0.81086  Biso   1.000  H 
  H189     1.0000 0.10476  0.28539  0.86043  Biso   1.000  H 
  H190     1.0000 0.16409  0.39015  0.72301  Biso   1.000  H 
  H191     1.0000 0.09403  0.34603  0.91702  Biso   1.000  H 
  H192     1.0000 0.11599  0.31984  0.72440  Biso   1.000  H 
  B289     1.0000 0.00000  0.84640  0.15360  Biso   1.000  B 
  B290     1.0000 0.00000  0.90471  0.17046  Biso   1.000  B 
  B291     1.0000 0.00000  0.82954  0.09529  Biso   1.000  B 
  B292     1.0000 0.00000  0.79500  0.20500  Biso   1.000  B 
  B293     1.0000 0.00000  0.73249  0.18437  Biso   1.000  B 
  N17      1.0000 0.98899  0.71494  0.11390  Biso   1.000  N 
  B294     1.0000 0.00000  0.63051  0.22128  Biso   1.000  B 
  B295     1.0000 0.00000  0.68442  0.23249  Biso   1.000  B 
  B296     1.0000 0.00000  0.70500  0.29500  Biso   1.000  B 
  B297     1.0000 0.00000  0.76751  0.31558  Biso   1.000  B 
  B298     1.0000 0.00000  0.81563  0.26751  Biso   1.000  B 
  B299     1.0000 0.00000  0.86954  0.27872  Biso   1.000  B 
  B300     1.0000 0.00000  0.77872  0.36949  Biso   1.000  B 
  B301     1.0000 0.00000  0.67046  0.40470  Biso   1.000  B 
  B302     1.0000 0.00000  0.65360  0.34640  Biso   1.000  B 
  B303     1.0000 0.00000  0.59529  0.32954  Biso   1.000  B 
  H193     1.0000 0.94643  0.73931  0.10215  Biso   1.000  H 
  C97      1.0000 0.97206  0.64881  0.10168  Biso   1.000  C 
  H194     1.0000 0.00824  0.61601  0.12406  Biso   1.000  H 
  C98      1.0000 0.98018  0.63709  0.02960  Biso   1.000  C 
  C99      1.0000 0.90124  0.63598  0.12604  Biso   1.000  C 
  C100     1.0000 0.90059  0.54622  0.03518  Biso   1.000  C 
  C101     1.0000 0.92411  0.60479  0.99953  Biso   1.000  C 
  H195     1.0000 0.02120  0.60483  0.02683  Biso   1.000  H 
  H196     1.0000 0.99388  0.67962  0.00202  Biso   1.000  H 
  H197     1.0000 0.88246  0.63213  0.00271  Biso   1.000  H 
  H198     1.0000 0.93477  0.59810  0.94740  Biso   1.000  H 
  C102     1.0000 0.87689  0.57065  0.10378  Biso   1.000  C 
  H199     1.0000 0.82396  0.57866  0.10241  Biso   1.000  H 
  H200     1.0000 0.89055  0.53957  0.14349  Biso   1.000  H 
  H201     1.0000 0.89687  0.64023  0.17951  Biso   1.000  H 
  H202     1.0000 0.85853  0.52244  0.00982  Biso   1.000  H 
  H203     1.0000 0.86594  0.67090  0.10535  Biso   1.000  H 
  H204     1.0000 0.94105  0.51448  0.03729  Biso   1.000  H 
  B304     1.0000 0.00000  0.34640  0.65360  Biso   1.000  B 
  B305     1.0000 0.00000  0.40471  0.67046  Biso   1.000  B 
  B306     1.0000 0.00000  0.32954  0.59529  Biso   1.000  B 
  B307     1.0000 0.00000  0.29500  0.70500  Biso   1.000  B 
  B308     1.0000 0.00000  0.23249  0.68437  Biso   1.000  B 
  N18      1.0000 0.98576  0.21379  0.61361  Biso   1.000  N 
  B309     1.0000 0.00000  0.13051  0.72128  Biso   1.000  B 
  B310     1.0000 0.00000  0.18442  0.73248  Biso   1.000  B 
  B311     1.0000 0.00000  0.20500  0.79499  Biso   1.000  B 
  B312     1.0000 0.00000  0.26751  0.81558  Biso   1.000  B 
  B313     1.0000 0.00000  0.31563  0.76751  Biso   1.000  B 
  B314     1.0000 0.00000  0.36954  0.77872  Biso   1.000  B 
  B315     1.0000 0.00000  0.27872  0.86949  Biso   1.000  B 
  B316     1.0000 0.00000  0.17046  0.90470  Biso   1.000  B 
  B317     1.0000 0.00000  0.15360  0.84639  Biso   1.000  B 
  B318     1.0000 0.00000  0.09529  0.82953  Biso   1.000  B 
  H205     1.0000 0.95000  0.24213  0.59164  Biso   1.000  H 
  C103     1.0000 0.95551  0.15165  0.60799  Biso   1.000  C 
  H206     1.0000 0.98140  0.11285  0.63251  Biso   1.000  H 
  C104     1.0000 0.95552  0.12259  0.54009  Biso   1.000  C 
  C105     1.0000 0.88821  0.15736  0.63199  Biso   1.000  C 
  C106     1.0000 0.89033  0.03958  0.59613  Biso   1.000  C 
  C107     1.0000 0.90759  0.06721  0.53292  Biso   1.000  C 
  H207     1.0000 0.00341  0.10129  0.53027  Biso   1.000  H 
  H208     1.0000 0.94436  0.16123  0.50549  Biso   1.000  H 
  H209     1.0000 0.86247  0.08631  0.51948  Biso   1.000  H 
  H210     1.0000 0.92044  0.02686  0.49925  Biso   1.000  H 
  C108     1.0000 0.85912  0.09320  0.64114  Biso   1.000  C 
  H211     1.0000 0.80705  0.10132  0.63354  Biso   1.000  H 
  H212     1.0000 0.86985  0.08498  0.69210  Biso   1.000  H 
  H213     1.0000 0.88442  0.18512  0.67825  Biso   1.000  H 
  H214     1.0000 0.85966  0.00042  0.58102  Biso   1.000  H 
  H215     1.0000 0.85781  0.18225  0.59593  Biso   1.000  H 
  H216     1.0000 0.93551  0.01788  0.61824  Biso   1.000  H 
  B319     1.0000 0.50000  0.84640  0.65360  Biso   1.000  B 
  B320     1.0000 0.50000  0.90471  0.67046  Biso   1.000  B 
  B321     1.0000 0.50000  0.82954  0.59529  Biso   1.000  B 
  B322     1.0000 0.50000  0.79500  0.70500  Biso   1.000  B 
  B323     1.0000 0.50000  0.73249  0.68437  Biso   1.000  B 
  N19      1.0000 0.48634  0.71468  0.61434  Biso   1.000  N 
  B324     1.0000 0.50000  0.63051  0.72128  Biso   1.000  B 
  B325     1.0000 0.50000  0.68442  0.73248  Biso   1.000  B 
  B326     1.0000 0.50000  0.70500  0.79499  Biso   1.000  B 
  B327     1.0000 0.50000  0.76751  0.81558  Biso   1.000  B 
  B328     1.0000 0.50000  0.81563  0.76751  Biso   1.000  B 
  B329     1.0000 0.50000  0.86954  0.77872  Biso   1.000  B 
  B330     1.0000 0.50000  0.77872  0.86949  Biso   1.000  B 
  B331     1.0000 0.50000  0.67046  0.90470  Biso   1.000  B 
  B332     1.0000 0.50000  0.65360  0.84639  Biso   1.000  B 
  B333     1.0000 0.50000  0.59529  0.82953  Biso   1.000  B 
  H217     1.0000 0.44448  0.73920  0.60011  Biso   1.000  H 
  C109     1.0000 0.47527  0.64557  0.59985  Biso   1.000  C 
  H218     1.0000 0.51256  0.61393  0.62338  Biso   1.000  H 
  C110     1.0000 0.47910  0.63609  0.52661  Biso   1.000  C 
  C111     1.0000 0.40794  0.62704  0.62381  Biso   1.000  C 
  C112     1.0000 0.39197  0.54576  0.52775  Biso   1.000  C 
  C113     1.0000 0.42479  0.59730  0.49157  Biso   1.000  C 
  H219     1.0000 0.52393  0.60889  0.52170  Biso   1.000  H 
  H220     1.0000 0.48333  0.68334  0.50086  Biso   1.000  H 
  H221     1.0000 0.38693  0.62867  0.48483  Biso   1.000  H 
  H222     1.0000 0.43915  0.57956  0.44584  Biso   1.000  H 
  C114     1.0000 0.38216  0.56464  0.59735  Biso   1.000  C 
  H223     1.0000 0.33096  0.57339  0.60391  Biso   1.000  H 
  H224     1.0000 0.39724  0.52523  0.63046  Biso   1.000  H 
  H225     1.0000 0.40474  0.62500  0.67713  Biso   1.000  H 
  H226     1.0000 0.34576  0.53168  0.50260  Biso   1.000  H 
  H227     1.0000 0.37297  0.66325  0.60739  Biso   1.000  H 
  H228     1.0000 0.42392  0.50377  0.52674  Biso   1.000  H 
  B334     1.0000 0.50000  0.34640  0.15360  Biso   1.000  B 
  B335     1.0000 0.50000  0.40471  0.17046  Biso   1.000  B 
  B336     1.0000 0.50000  0.32954  0.09529  Biso   1.000  B 
  B337     1.0000 0.50000  0.29500  0.20500  Biso   1.000  B 
  B338     1.0000 0.50000  0.23249  0.18437  Biso   1.000  B 
  N20      1.0000 0.49004  0.21577  0.11613  Biso   1.000  N 
  B339     1.0000 0.50000  0.13051  0.22128  Biso   1.000  B 
  B340     1.0000 0.50000  0.18442  0.23249  Biso   1.000  B 
  B341     1.0000 0.50000  0.20500  0.29500  Biso   1.000  B 
  B342     1.0000 0.50000  0.26751  0.31558  Biso   1.000  B 
  B343     1.0000 0.50000  0.31563  0.26751  Biso   1.000  B 
  B344     1.0000 0.50000  0.36954  0.27872  Biso   1.000  B 
  B345     1.0000 0.50000  0.27872  0.36949  Biso   1.000  B 
  B346     1.0000 0.50000  0.17046  0.40470  Biso   1.000  B 
  B347     1.0000 0.50000  0.15360  0.34640  Biso   1.000  B 
  B348     1.0000 0.50000  0.09529  0.32954  Biso   1.000  B 
  H229     1.0000 0.53024  0.20364  0.09332  Biso   1.000  H 
  C115     1.0000 0.44141  0.16339  0.11277  Biso   1.000  C 
  H230     1.0000 0.45432  0.12446  0.14020  Biso   1.000  H 
  C116     1.0000 0.44674  0.13371  0.04735  Biso   1.000  C 
  C117     1.0000 0.37603  0.18682  0.14040  Biso   1.000  C 
  C118     1.0000 0.35281  0.07541  0.09004  Biso   1.000  C 
  C119     1.0000 0.41555  0.07306  0.04865  Biso   1.000  C 
  H231     1.0000 0.50185  0.11765  0.05001  Biso   1.000  H 
  H232     1.0000 0.43845  0.15640  0.00113  Biso   1.000  H 
  H233     1.0000 0.40888  0.05195  0.00105  Biso   1.000  H 
  H234     1.0000 0.44904  0.03994  0.06684  Biso   1.000  H 
  C120     1.0000 0.32941  0.13300  0.13522  Biso   1.000  C 
  H235     1.0000 0.28417  0.15573  0.11386  Biso   1.000  H 
  H236     1.0000 0.31520  0.11747  0.18375  Biso   1.000  H 
  H237     1.0000 0.38089  0.20052  0.19197  Biso   1.000  H 
  H238     1.0000 0.31272  0.05937  0.05707  Biso   1.000  H 
  H239     1.0000 0.35680  0.22640  0.11237  Biso   1.000  H 
  H240     1.0000 0.36159  0.03951  0.12343  Biso   1.000  H 
  B349     1.0000 0.00000  0.84640  0.84640  Biso   1.000  B 
  B350     1.0000 0.00000  0.90471  0.82954  Biso   1.000  B 
  B351     1.0000 0.00000  0.82954  0.90471  Biso   1.000  B 
  B352     1.0000 0.00000  0.79500  0.79500  Biso   1.000  B 
  B353     1.0000 0.00000  0.73249  0.81563  Biso   1.000  B 
  N21      1.0000 0.95063  0.71310  0.86961  Biso   1.000  N 
  B354     1.0000 0.00000  0.63051  0.77872  Biso   1.000  B 
  B355     1.0000 0.00000  0.68442  0.76752  Biso   1.000  B 
  B356     1.0000 0.00000  0.70500  0.70501  Biso   1.000  B 
  B357     1.0000 0.00000  0.76751  0.68442  Biso   1.000  B 
  B358     1.0000 0.00000  0.81563  0.73249  Biso   1.000  B 
  B359     1.0000 0.00000  0.86954  0.72128  Biso   1.000  B 
  B360     1.0000 0.00000  0.77872  0.63051  Biso   1.000  B 
  B361     1.0000 0.00000  0.67046  0.59530  Biso   1.000  B 
  B362     1.0000 0.00000  0.65360  0.65361  Biso   1.000  B 
  B363     1.0000 0.00000  0.59529  0.67047  Biso   1.000  B 
  H241     1.0000 0.94761  0.73788  0.91306  Biso   1.000  H 
  C121     1.0000 0.89090  0.70550  0.83114  Biso   1.000  C 
  H242     1.0000 0.89400  0.72746  0.78201  Biso   1.000  H 
  C122     1.0000 0.83399  0.74332  0.85704  Biso   1.000  C 
  C123     1.0000 0.88078  0.63297  0.81989  Biso   1.000  C 
  C124     1.0000 0.76728  0.63443  0.85375  Biso   1.000  C 
  C125     1.0000 0.76580  0.70883  0.85355  Biso   1.000  C 
  H243     1.0000 0.83091  0.78524  0.83089  Biso   1.000  H 
  H244     1.0000 0.84821  0.76349  0.90232  Biso   1.000  H 
  H245     1.0000 0.73411  0.72804  0.88916  Biso   1.000  H 
  H246     1.0000 0.74219  0.72029  0.80836  Biso   1.000  H 
  C126     1.0000 0.83491  0.61236  0.87303  Biso   1.000  C 
  H247     1.0000 0.84236  0.64014  0.91506  Biso   1.000  H 
  H248     1.0000 0.84595  0.56287  0.88908  Biso   1.000  H 
  H249     1.0000 0.86421  0.62286  0.76878  Biso   1.000  H 
  H250     1.0000 0.73370  0.61588  0.89094  Biso   1.000  H 
  H251     1.0000 0.92263  0.60019  0.83076  Biso   1.000  H 
  H252     1.0000 0.75360  0.61850  0.80376  Biso   1.000  H 
  B364     1.0000 0.00000  0.34640  0.34640  Biso   1.000  B 
  B365     1.0000 0.00000  0.40471  0.32954  Biso   1.000  B 
  B366     1.0000 0.00000  0.32954  0.40471  Biso   1.000  B 
  B367     1.0000 0.00000  0.29500  0.29500  Biso   1.000  B 
  B368     1.0000 0.00000  0.23249  0.31563  Biso   1.000  B 
  N22      1.0000 0.96747  0.20872  0.37701  Biso   1.000  N 
  B369     1.0000 0.00000  0.13051  0.27872  Biso   1.000  B 
  B370     1.0000 0.00000  0.18442  0.26751  Biso   1.000  B 
  B371     1.0000 0.00000  0.20500  0.20500  Biso   1.000  B 
  B372     1.0000 0.00000  0.26751  0.18442  Biso   1.000  B 
  B373     1.0000 0.00000  0.31563  0.23249  Biso   1.000  B 
  B374     1.0000 0.00000  0.36954  0.22128  Biso   1.000  B 
  B375     1.0000 0.00000  0.27872  0.13051  Biso   1.000  B 
  B376     1.0000 0.00000  0.17046  0.09530  Biso   1.000  B 
  B377     1.0000 0.00000  0.15360  0.15360  Biso   1.000  B 
  B378     1.0000 0.00000  0.09529  0.17046  Biso   1.000  B 
  H253     1.0000 0.96341  0.23406  0.42068  Biso   1.000  H 
  C127     1.0000 0.90831  0.17871  0.35466  Biso   1.000  C 
  H254     1.0000 0.90046  0.16947  0.30291  Biso   1.000  H 
  C128     1.0000 0.85652  0.22968  0.35559  Biso   1.000  C 
  C129     1.0000 0.90120  0.10717  0.37468  Biso   1.000  C 
  C130     1.0000 0.78611  0.13007  0.35066  Biso   1.000  C 
  C131     1.0000 0.79121  0.20124  0.34658  Biso   1.000  C 
  H255     1.0000 0.86837  0.26156  0.31853  Biso   1.000  H 
  H256     1.0000 0.86065  0.25727  0.39974  Biso   1.000  H 
  H257     1.0000 0.76189  0.21475  0.38520  Biso   1.000  H 
  H258     1.0000 0.77135  0.21547  0.29989  Biso   1.000  H 
  C132     1.0000 0.83571  0.10553  0.40124  Biso   1.000  C 
  H259     1.0000 0.84758  0.13932  0.43775  Biso   1.000  H 
  H260     1.0000 0.82425  0.05951  0.42464  Biso   1.000  H 
  H261     1.0000 0.91041  0.07192  0.33678  Biso   1.000  H 
  H262     1.0000 0.73369  0.11834  0.35935  Biso   1.000  H 
  H263     1.0000 0.93446  0.09501  0.41380  Biso   1.000  H 
  H264     1.0000 0.79868  0.11473  0.30051  Biso   1.000  H 
  B379     1.0000 0.50000  0.84640  0.34640  Biso   1.000  B 
  B380     1.0000 0.50000  0.90471  0.32954  Biso   1.000  B 
  B381     1.0000 0.50000  0.82954  0.40471  Biso   1.000  B 
  B382     1.0000 0.50000  0.79500  0.29500  Biso   1.000  B 
  B383     1.0000 0.50000  0.73249  0.31563  Biso   1.000  B 
  N23      1.0000 0.45102  0.71364  0.36796  Biso   1.000  N 
  B384     1.0000 0.50000  0.63051  0.27872  Biso   1.000  B 
  B385     1.0000 0.50000  0.68442  0.26751  Biso   1.000  B 
  B386     1.0000 0.50000  0.70500  0.20500  Biso   1.000  B 
  B387     1.0000 0.50000  0.76751  0.18442  Biso   1.000  B 
  B388     1.0000 0.50000  0.81563  0.23249  Biso   1.000  B 
  B389     1.0000 0.50000  0.86954  0.22128  Biso   1.000  B 
  B390     1.0000 0.50000  0.77872  0.13051  Biso   1.000  B 
  B391     1.0000 0.50000  0.67046  0.09530  Biso   1.000  B 
  B392     1.0000 0.50000  0.65360  0.15360  Biso   1.000  B 
  B393     1.0000 0.50000  0.59529  0.17046  Biso   1.000  B 
  H265     1.0000 0.44281  0.74304  0.40682  Biso   1.000  H 
  C133     1.0000 0.39008  0.69404  0.33383  Biso   1.000  C 
  H266     1.0000 0.39476  0.69676  0.28128  Biso   1.000  H 
  C134     1.0000 0.33447  0.73774  0.34160  Biso   1.000  C 
  C135     1.0000 0.37679  0.62329  0.33720  Biso   1.000  C 
  C136     1.0000 0.26036  0.63976  0.35387  Biso   1.000  C 
  C137     1.0000 0.27514  0.70122  0.31649  Biso   1.000  C 
  H267     1.0000 0.34804  0.78204  0.31462  Biso   1.000  H 
  H268     1.0000 0.32780  0.75467  0.38923  Biso   1.000  H 
  H269     1.0000 0.23194  0.73040  0.32249  Biso   1.000  H 
  H270     1.0000 0.28377  0.69053  0.26567  Biso   1.000  H 
  C138     1.0000 0.32115  0.61175  0.38039  Biso   1.000  C 
  H271     1.0000 0.32915  0.64726  0.41381  Biso   1.000  H 
  H272     1.0000 0.32732  0.56725  0.40642  Biso   1.000  H 
  H273     1.0000 0.36403  0.60757  0.28925  Biso   1.000  H 
  H274     1.0000 0.22471  0.64908  0.39248  Biso   1.000  H 
  H275     1.0000 0.42118  0.59714  0.35137  Biso   1.000  H 
  H276     1.0000 0.23573  0.61323  0.31557  Biso   1.000  H 
  B394     1.0000 0.50000  0.34640  0.84640  Biso   1.000  B 
  B395     1.0000 0.50000  0.40471  0.82954  Biso   1.000  B 
  B396     1.0000 0.50000  0.32954  0.90471  Biso   1.000  B 
  B397     1.0000 0.50000  0.29500  0.79500  Biso   1.000  B 
  B398     1.0000 0.50000  0.23249  0.81563  Biso   1.000  B 
  N24      1.0000 0.47303  0.21465  0.87992  Biso   1.000  N 
  B399     1.0000 0.50000  0.13051  0.77872  Biso   1.000  B 
  B400     1.0000 0.50000  0.18442  0.76752  Biso   1.000  B 
  B401     1.0000 0.50000  0.20500  0.70501  Biso   1.000  B 
  B402     1.0000 0.50000  0.26751  0.68442  Biso   1.000  B 
  B403     1.0000 0.50000  0.31563  0.73249  Biso   1.000  B 
  B404     1.0000 0.50000  0.36954  0.72128  Biso   1.000  B 
  B405     1.0000 0.50000  0.27872  0.63051  Biso   1.000  B 
  B406     1.0000 0.50000  0.17046  0.59530  Biso   1.000  B 
  B407     1.0000 0.50000  0.15360  0.65361  Biso   1.000  B 
  B408     1.0000 0.50000  0.09529  0.67047  Biso   1.000  B 
  H277     1.0000 0.50579  0.19304  0.91279  Biso   1.000  H 
  C139     1.0000 0.41172  0.18060  0.86139  Biso   1.000  C 
  H278     1.0000 0.40330  0.17493  0.80925  Biso   1.000  H 
  C140     1.0000 0.35855  0.22908  0.86827  Biso   1.000  C 
  C141     1.0000 0.40759  0.10820  0.87895  Biso   1.000  C 
  C142     1.0000 0.29089  0.12609  0.86258  Biso   1.000  C 
  C143     1.0000 0.29505  0.19919  0.85774  Biso   1.000  C 
  H279     1.0000 0.36554  0.25905  0.82787  Biso   1.000  H 
  H280     1.0000 0.36828  0.26212  0.90545  Biso   1.000  H 
  H281     1.0000 0.26254  0.21769  0.89159  Biso   1.000  H 
  H282     1.0000 0.27531  0.21080  0.81016  Biso   1.000  H 
  C144     1.0000 0.34440  0.09435  0.90343  Biso   1.000  C 
  H283     1.0000 0.34904  0.12512  0.94442  Biso   1.000  H 
  H284     1.0000 0.34380  0.04407  0.92176  Biso   1.000  H 
  H285     1.0000 0.41273  0.07882  0.83376  Biso   1.000  H 
  H286     1.0000 0.24107  0.11293  0.88248  Biso   1.000  H 
  H287     1.0000 0.44385  0.09415  0.91258  Biso   1.000  H 
  H288     1.0000 0.29605  0.11212  0.81104  Biso   1.000  H 
