data_image0
_cell_length_a       26.896
_cell_length_b       26.896
_cell_length_c       26.896
_cell_angle_alpha    90
_cell_angle_beta     90
_cell_angle_gamma    90

_symmetry_space_group_name_H-M    "P 1"
_symmetry_int_tables_number       1

loop_
  _symmetry_equiv_pos_as_xyz
  'x, y, z'

loop_
  _atom_site_label
  _atom_site_occupancy
  _atom_site_fract_x
  _atom_site_fract_y
  _atom_site_fract_z
  _atom_site_thermal_displace_type
  _atom_site_B_iso_or_equiv
  _atom_site_type_symbol
  B1       1.0000 0.09204  0.00000  0.00000  Biso   1.000  B 
  B2       1.0000 0.90796  0.00000  0.00000  Biso   1.000  B 
  B3       1.0000 0.00000  0.09204  0.00000  Biso   1.000  B 
  B4       1.0000 0.00000  0.90796  0.00000  Biso   1.000  B 
  B5       1.0000 0.00000  0.00000  0.09204  Biso   1.000  B 
  B6       1.0000 0.00000  0.00000  0.90796  Biso   1.000  B 
  B7       1.0000 0.09204  0.50000  0.50000  Biso   1.000  B 
  B8       1.0000 0.90796  0.50000  0.50000  Biso   1.000  B 
  B9       1.0000 0.00000  0.59204  0.50000  Biso   1.000  B 
  B10      1.0000 0.00000  0.40796  0.50000  Biso   1.000  B 
  B11      1.0000 0.00000  0.50000  0.59204  Biso   1.000  B 
  B12      1.0000 0.00000  0.50000  0.40796  Biso   1.000  B 
  B13      1.0000 0.59204  0.00000  0.50000  Biso   1.000  B 
  B14      1.0000 0.40796  0.00000  0.50000  Biso   1.000  B 
  B15      1.0000 0.50000  0.09204  0.50000  Biso   1.000  B 
  B16      1.0000 0.50000  0.90796  0.50000  Biso   1.000  B 
  B17      1.0000 0.50000  0.00000  0.59204  Biso   1.000  B 
  B18      1.0000 0.50000  0.00000  0.40796  Biso   1.000  B 
  B19      1.0000 0.59204  0.50000  0.00000  Biso   1.000  B 
  B20      1.0000 0.40796  0.50000  0.00000  Biso   1.000  B 
  B21      1.0000 0.50000  0.59204  0.00000  Biso   1.000  B 
  B22      1.0000 0.50000  0.40796  0.00000  Biso   1.000  B 
  B23      1.0000 0.50000  0.50000  0.09204  Biso   1.000  B 
  B24      1.0000 0.50000  0.50000  0.90796  Biso   1.000  B 
  B25      1.0000 0.04540  0.04540  0.04540  Biso   1.000  B 
  B26      1.0000 0.95460  0.95460  0.04540  Biso   1.000  B 
  B27      1.0000 0.95460  0.04540  0.95460  Biso   1.000  B 
  B28      1.0000 0.04540  0.95460  0.95460  Biso   1.000  B 
  B29      1.0000 0.04540  0.04540  0.95460  Biso   1.000  B 
  B30      1.0000 0.95460  0.95460  0.95460  Biso   1.000  B 
  B31      1.0000 0.04540  0.95460  0.04540  Biso   1.000  B 
  B32      1.0000 0.95460  0.04540  0.04540  Biso   1.000  B 
  B33      1.0000 0.04540  0.54540  0.54540  Biso   1.000  B 
  B34      1.0000 0.95460  0.45460  0.54540  Biso   1.000  B 
  B35      1.0000 0.95460  0.54540  0.45460  Biso   1.000  B 
  B36      1.0000 0.04540  0.45460  0.45460  Biso   1.000  B 
  B37      1.0000 0.04540  0.54540  0.45460  Biso   1.000  B 
  B38      1.0000 0.95460  0.45460  0.45460  Biso   1.000  B 
  B39      1.0000 0.04540  0.45460  0.54540  Biso   1.000  B 
  B40      1.0000 0.95460  0.54540  0.54540  Biso   1.000  B 
  B41      1.0000 0.54540  0.04540  0.54540  Biso   1.000  B 
  B42      1.0000 0.45460  0.95460  0.54540  Biso   1.000  B 
  B43      1.0000 0.45460  0.04540  0.45460  Biso   1.000  B 
  B44      1.0000 0.54540  0.95460  0.45460  Biso   1.000  B 
  B45      1.0000 0.54540  0.04540  0.45460  Biso   1.000  B 
  B46      1.0000 0.45460  0.95460  0.45460  Biso   1.000  B 
  B47      1.0000 0.54540  0.95460  0.54540  Biso   1.000  B 
  B48      1.0000 0.45460  0.04540  0.54540  Biso   1.000  B 
  B49      1.0000 0.54540  0.54540  0.04540  Biso   1.000  B 
  B50      1.0000 0.45460  0.45460  0.04540  Biso   1.000  B 
  B51      1.0000 0.45460  0.54540  0.95460  Biso   1.000  B 
  B52      1.0000 0.54540  0.45460  0.95460  Biso   1.000  B 
  B53      1.0000 0.54540  0.54540  0.95460  Biso   1.000  B 
  B54      1.0000 0.45460  0.45460  0.95460  Biso   1.000  B 
  B55      1.0000 0.54540  0.45460  0.04540  Biso   1.000  B 
  B56      1.0000 0.45460  0.54540  0.04540  Biso   1.000  B 
  B57      1.0000 0.13260  0.00000  0.07190  Biso   1.000  B 
  B58      1.0000 0.11720  0.00000  0.11720  Biso   1.000  B 
  B59      1.0000 0.07190  0.00000  0.13260  Biso   1.000  B 
  B60      1.0000 0.15650  0.00000  0.15650  Biso   1.000  B 
  B61      1.0000 0.20580  0.00000  0.14470  Biso   1.000  B 
  B62      1.0000 0.14470  0.00000  0.20580  Biso   1.000  B 
  B63      1.0000 0.24200  0.00000  0.17950  Biso   1.000  B 
  B64      1.0000 0.21490  0.00000  0.11140  Biso   1.000  B 
  B65      1.0000 0.17950  0.00000  0.24200  Biso   1.000  B 
  B66      1.0000 0.11140  0.00000  0.21490  Biso   1.000  B 
  B67      1.0000 0.23070  0.00000  0.23070  Biso   1.000  B 
  B68      1.0000 0.26930  0.00000  0.26930  Biso   1.000  B 
  B69      1.0000 0.27510  0.00000  0.16950  Biso   1.000  B 
  B70      1.0000 0.32050  0.00000  0.25800  Biso   1.000  B 
  N1       1.0000 0.15882  0.00493  0.29394  Biso   1.000  N 
  B71      1.0000 0.25800  0.00000  0.32050  Biso   1.000  B 
  B72      1.0000 0.35530  0.00000  0.29420  Biso   1.000  B 
  N2       1.0000 0.34111  0.00539  0.20571  Biso   1.000  N 
  B73      1.0000 0.29420  0.00000  0.35530  Biso   1.000  B 
  B74      1.0000 0.22490  0.00000  0.33050  Biso   1.000  B 
  B75      1.0000 0.34350  0.00000  0.34350  Biso   1.000  B 
  B76      1.0000 0.38280  0.00000  0.38280  Biso   1.000  B 
  B77      1.0000 0.38860  0.00000  0.28510  Biso   1.000  B 
  B78      1.0000 0.28510  0.00000  0.38860  Biso   1.000  B 
  B79      1.0000 0.42810  0.00000  0.36740  Biso   1.000  B 
  B80      1.0000 0.36740  0.00000  0.42810  Biso   1.000  B 
  H1       1.0000 0.36460  0.03645  0.20400  Biso   1.000  H 
  H2       1.0000 0.36306  0.97433  0.19776  Biso   1.000  H 
  H3       1.0000 0.13732  0.97327  0.30059  Biso   1.000  H 
  H4       1.0000 0.13412  0.03483  0.29667  Biso   1.000  H 
  B81      1.0000 0.86740  0.00000  0.07190  Biso   1.000  B 
  B82      1.0000 0.88280  0.00000  0.11720  Biso   1.000  B 
  B83      1.0000 0.92810  0.00000  0.13260  Biso   1.000  B 
  B84      1.0000 0.84350  0.00000  0.15650  Biso   1.000  B 
  B85      1.0000 0.79420  0.00000  0.14470  Biso   1.000  B 
  B86      1.0000 0.85530  0.00000  0.20580  Biso   1.000  B 
  B87      1.0000 0.75800  0.00000  0.17950  Biso   1.000  B 
  B88      1.0000 0.78510  0.00000  0.11140  Biso   1.000  B 
  B89      1.0000 0.82050  0.00000  0.24200  Biso   1.000  B 
  B90      1.0000 0.88860  0.00000  0.21490  Biso   1.000  B 
  B91      1.0000 0.76930  0.00000  0.23070  Biso   1.000  B 
  B92      1.0000 0.73070  0.00000  0.26930  Biso   1.000  B 
  B93      1.0000 0.72490  0.00000  0.16950  Biso   1.000  B 
  B94      1.0000 0.67950  0.00000  0.25800  Biso   1.000  B 
  N3       1.0000 0.84118  0.00495  0.29393  Biso   1.000  N 
  B95      1.0000 0.74200  0.00000  0.32050  Biso   1.000  B 
  B96      1.0000 0.64470  0.00000  0.29420  Biso   1.000  B 
  N4       1.0000 0.65889  0.00526  0.20573  Biso   1.000  N 
  B97      1.0000 0.70580  0.00000  0.35530  Biso   1.000  B 
  B98      1.0000 0.77510  0.00000  0.33050  Biso   1.000  B 
  B99      1.0000 0.65650  0.00000  0.34350  Biso   1.000  B 
  B100     1.0000 0.61720  0.00000  0.38280  Biso   1.000  B 
  B101     1.0000 0.61140  0.00000  0.28510  Biso   1.000  B 
  B102     1.0000 0.71490  0.00000  0.38860  Biso   1.000  B 
  B103     1.0000 0.57190  0.00000  0.36740  Biso   1.000  B 
  B104     1.0000 0.63260  0.00000  0.42810  Biso   1.000  B 
  H5       1.0000 0.63530  0.03621  0.20387  Biso   1.000  H 
  H6       1.0000 0.63695  0.97417  0.19790  Biso   1.000  H 
  H7       1.0000 0.86268  0.97327  0.30053  Biso   1.000  H 
  H8       1.0000 0.86591  0.03484  0.29666  Biso   1.000  H 
  B105     1.0000 0.86740  0.00000  0.92810  Biso   1.000  B 
  B106     1.0000 0.88280  0.00000  0.88280  Biso   1.000  B 
  B107     1.0000 0.92810  0.00000  0.86740  Biso   1.000  B 
  B108     1.0000 0.84350  0.00000  0.84350  Biso   1.000  B 
  B109     1.0000 0.79420  0.00000  0.85530  Biso   1.000  B 
  B110     1.0000 0.85530  0.00000  0.79420  Biso   1.000  B 
  B111     1.0000 0.75800  0.00000  0.82050  Biso   1.000  B 
  B112     1.0000 0.78510  0.00000  0.88860  Biso   1.000  B 
  B113     1.0000 0.82050  0.00000  0.75800  Biso   1.000  B 
  B114     1.0000 0.88860  0.00000  0.78510  Biso   1.000  B 
  B115     1.0000 0.76930  0.00000  0.76930  Biso   1.000  B 
  B116     1.0000 0.73070  0.00000  0.73070  Biso   1.000  B 
  B117     1.0000 0.72490  0.00000  0.83050  Biso   1.000  B 
  B118     1.0000 0.67950  0.00000  0.74200  Biso   1.000  B 
  N5       1.0000 0.84118  0.00492  0.70606  Biso   1.000  N 
  B119     1.0000 0.74200  0.00000  0.67950  Biso   1.000  B 
  B120     1.0000 0.64470  0.00000  0.70580  Biso   1.000  B 
  N6       1.0000 0.65889  0.00532  0.79426  Biso   1.000  N 
  B121     1.0000 0.70580  0.00000  0.64470  Biso   1.000  B 
  B122     1.0000 0.77510  0.00000  0.66950  Biso   1.000  B 
  B123     1.0000 0.65650  0.00000  0.65650  Biso   1.000  B 
  B124     1.0000 0.61720  0.00000  0.61720  Biso   1.000  B 
  B125     1.0000 0.61140  0.00000  0.71490  Biso   1.000  B 
  B126     1.0000 0.71490  0.00000  0.61140  Biso   1.000  B 
  B127     1.0000 0.57190  0.00000  0.63260  Biso   1.000  B 
  B128     1.0000 0.63260  0.00000  0.57190  Biso   1.000  B 
  H9       1.0000 0.63530  0.03627  0.79611  Biso   1.000  H 
  H10      1.0000 0.63694  0.97424  0.80211  Biso   1.000  H 
  H11      1.0000 0.86267  0.97323  0.69947  Biso   1.000  H 
  H12      1.0000 0.86591  0.03481  0.70333  Biso   1.000  H 
  B129     1.0000 0.13260  0.00000  0.92810  Biso   1.000  B 
  B130     1.0000 0.11720  0.00000  0.88280  Biso   1.000  B 
  B131     1.0000 0.07190  0.00000  0.86740  Biso   1.000  B 
  B132     1.0000 0.15650  0.00000  0.84350  Biso   1.000  B 
  B133     1.0000 0.20580  0.00000  0.85530  Biso   1.000  B 
  B134     1.0000 0.14470  0.00000  0.79420  Biso   1.000  B 
  B135     1.0000 0.24200  0.00000  0.82050  Biso   1.000  B 
  B136     1.0000 0.21490  0.00000  0.88860  Biso   1.000  B 
  B137     1.0000 0.17950  0.00000  0.75800  Biso   1.000  B 
  B138     1.0000 0.11140  0.00000  0.78510  Biso   1.000  B 
  B139     1.0000 0.23070  0.00000  0.76930  Biso   1.000  B 
  B140     1.0000 0.26930  0.00000  0.73070  Biso   1.000  B 
  B141     1.0000 0.27510  0.00000  0.83050  Biso   1.000  B 
  B142     1.0000 0.32050  0.00000  0.74200  Biso   1.000  B 
  N7       1.0000 0.15882  0.00490  0.70605  Biso   1.000  N 
  B143     1.0000 0.25800  0.00000  0.67950  Biso   1.000  B 
  B144     1.0000 0.35530  0.00000  0.70580  Biso   1.000  B 
  N8       1.0000 0.34111  0.00533  0.79429  Biso   1.000  N 
  B145     1.0000 0.29420  0.00000  0.64470  Biso   1.000  B 
  B146     1.0000 0.22490  0.00000  0.66950  Biso   1.000  B 
  B147     1.0000 0.34350  0.00000  0.65650  Biso   1.000  B 
  B148     1.0000 0.38280  0.00000  0.61720  Biso   1.000  B 
  B149     1.0000 0.38860  0.00000  0.71490  Biso   1.000  B 
  B150     1.0000 0.28510  0.00000  0.61140  Biso   1.000  B 
  B151     1.0000 0.42810  0.00000  0.63260  Biso   1.000  B 
  B152     1.0000 0.36740  0.00000  0.57190  Biso   1.000  B 
  H13      1.0000 0.36460  0.03640  0.79601  Biso   1.000  H 
  H14      1.0000 0.36305  0.97426  0.80222  Biso   1.000  H 
  H15      1.0000 0.13733  0.97323  0.69942  Biso   1.000  H 
  H16      1.0000 0.13410  0.03479  0.70332  Biso   1.000  H 
  B153     1.0000 0.07190  0.13260  0.00000  Biso   1.000  B 
  B154     1.0000 0.11720  0.11720  0.00000  Biso   1.000  B 
  B155     1.0000 0.13260  0.07190  0.00000  Biso   1.000  B 
  B156     1.0000 0.15650  0.15650  0.00000  Biso   1.000  B 
  B157     1.0000 0.14470  0.20580  0.00000  Biso   1.000  B 
  B158     1.0000 0.20580  0.14470  0.00000  Biso   1.000  B 
  B159     1.0000 0.17950  0.24200  0.00000  Biso   1.000  B 
  B160     1.0000 0.11140  0.21490  0.00000  Biso   1.000  B 
  B161     1.0000 0.24200  0.17950  0.00000  Biso   1.000  B 
  B162     1.0000 0.21490  0.11140  0.00000  Biso   1.000  B 
  B163     1.0000 0.23070  0.23070  0.00000  Biso   1.000  B 
  B164     1.0000 0.26930  0.26930  0.00000  Biso   1.000  B 
  B165     1.0000 0.16950  0.27510  0.00000  Biso   1.000  B 
  B166     1.0000 0.25800  0.32050  0.00000  Biso   1.000  B 
  N9       1.0000 0.29422  0.15889  0.00523  Biso   1.000  N 
  B167     1.0000 0.32050  0.25800  0.00000  Biso   1.000  B 
  B168     1.0000 0.29420  0.35530  0.00000  Biso   1.000  B 
  N10      1.0000 0.20541  0.34120  0.99457  Biso   1.000  N 
  B169     1.0000 0.35530  0.29420  0.00000  Biso   1.000  B 
  B170     1.0000 0.33050  0.22490  0.00000  Biso   1.000  B 
  B171     1.0000 0.34350  0.34350  0.00000  Biso   1.000  B 
  B172     1.0000 0.38280  0.38280  0.00000  Biso   1.000  B 
  B173     1.0000 0.28510  0.38860  0.00000  Biso   1.000  B 
  B174     1.0000 0.38860  0.28510  0.00000  Biso   1.000  B 
  B175     1.0000 0.36740  0.42810  0.00000  Biso   1.000  B 
  B176     1.0000 0.42810  0.36740  0.00000  Biso   1.000  B 
  H17      1.0000 0.20575  0.36261  0.96208  Biso   1.000  H 
  H18      1.0000 0.19683  0.36329  0.02549  Biso   1.000  H 
  H19      1.0000 0.30191  0.13698  0.97411  Biso   1.000  H 
  H20      1.0000 0.29629  0.13510  0.03596  Biso   1.000  H 
  B177     1.0000 0.07190  0.86740  0.00000  Biso   1.000  B 
  B178     1.0000 0.11720  0.88280  0.00000  Biso   1.000  B 
  B179     1.0000 0.13260  0.92810  0.00000  Biso   1.000  B 
  B180     1.0000 0.15650  0.84350  0.00000  Biso   1.000  B 
  B181     1.0000 0.14470  0.79420  0.00000  Biso   1.000  B 
  B182     1.0000 0.20580  0.85530  0.00000  Biso   1.000  B 
  B183     1.0000 0.17950  0.75800  0.00000  Biso   1.000  B 
  B184     1.0000 0.11140  0.78510  0.00000  Biso   1.000  B 
  B185     1.0000 0.24200  0.82050  0.00000  Biso   1.000  B 
  B186     1.0000 0.21490  0.88860  0.00000  Biso   1.000  B 
  B187     1.0000 0.23070  0.76930  0.00000  Biso   1.000  B 
  B188     1.0000 0.26930  0.73070  0.00000  Biso   1.000  B 
  B189     1.0000 0.16950  0.72490  0.00000  Biso   1.000  B 
  B190     1.0000 0.25800  0.67950  0.00000  Biso   1.000  B 
  N11      1.0000 0.29416  0.84113  0.00506  Biso   1.000  N 
  B191     1.0000 0.32050  0.74200  0.00000  Biso   1.000  B 
  B192     1.0000 0.29420  0.64470  0.00000  Biso   1.000  B 
  N12      1.0000 0.20546  0.65884  0.99456  Biso   1.000  N 
  B193     1.0000 0.35530  0.70580  0.00000  Biso   1.000  B 
  B194     1.0000 0.33050  0.77510  0.00000  Biso   1.000  B 
  B195     1.0000 0.34350  0.65650  0.00000  Biso   1.000  B 
  B196     1.0000 0.38280  0.61720  0.00000  Biso   1.000  B 
  B197     1.0000 0.28510  0.61140  0.00000  Biso   1.000  B 
  B198     1.0000 0.38860  0.71490  0.00000  Biso   1.000  B 
  B199     1.0000 0.36740  0.57190  0.00000  Biso   1.000  B 
  B200     1.0000 0.42810  0.63260  0.00000  Biso   1.000  B 
  H21      1.0000 0.20532  0.63683  0.96235  Biso   1.000  H 
  H22      1.0000 0.19699  0.63685  0.02558  Biso   1.000  H 
  H23      1.0000 0.30157  0.86295  0.97383  Biso   1.000  H 
  H24      1.0000 0.29651  0.86518  0.03547  Biso   1.000  H 
  B201     1.0000 0.92810  0.86740  0.00000  Biso   1.000  B 
  B202     1.0000 0.88280  0.88280  0.00000  Biso   1.000  B 
  B203     1.0000 0.86740  0.92810  0.00000  Biso   1.000  B 
  B204     1.0000 0.84350  0.84350  0.00000  Biso   1.000  B 
  B205     1.0000 0.85530  0.79420  0.00000  Biso   1.000  B 
  B206     1.0000 0.79420  0.85530  0.00000  Biso   1.000  B 
  B207     1.0000 0.82050  0.75800  0.00000  Biso   1.000  B 
  B208     1.0000 0.88860  0.78510  0.00000  Biso   1.000  B 
  B209     1.0000 0.75800  0.82050  0.00000  Biso   1.000  B 
  B210     1.0000 0.78510  0.88860  0.00000  Biso   1.000  B 
  B211     1.0000 0.76930  0.76930  0.00000  Biso   1.000  B 
  B212     1.0000 0.73070  0.73070  0.00000  Biso   1.000  B 
  B213     1.0000 0.83050  0.72490  0.00000  Biso   1.000  B 
  B214     1.0000 0.74200  0.67950  0.00000  Biso   1.000  B 
  N13      1.0000 0.70586  0.84112  0.00516  Biso   1.000  N 
  B215     1.0000 0.67950  0.74200  0.00000  Biso   1.000  B 
  B216     1.0000 0.70580  0.64470  0.00000  Biso   1.000  B 
  N14      1.0000 0.79453  0.65885  0.99456  Biso   1.000  N 
  B217     1.0000 0.64470  0.70580  0.00000  Biso   1.000  B 
  B218     1.0000 0.66950  0.77510  0.00000  Biso   1.000  B 
  B219     1.0000 0.65650  0.65650  0.00000  Biso   1.000  B 
  B220     1.0000 0.61720  0.61720  0.00000  Biso   1.000  B 
  B221     1.0000 0.71490  0.61140  0.00000  Biso   1.000  B 
  B222     1.0000 0.61140  0.71490  0.00000  Biso   1.000  B 
  B223     1.0000 0.63260  0.57190  0.00000  Biso   1.000  B 
  B224     1.0000 0.57190  0.63260  0.00000  Biso   1.000  B 
  H25      1.0000 0.79478  0.63671  0.96243  Biso   1.000  H 
  H26      1.0000 0.80297  0.63688  0.02560  Biso   1.000  H 
  H27      1.0000 0.69841  0.86296  0.97396  Biso   1.000  H 
  H28      1.0000 0.70353  0.86517  0.03558  Biso   1.000  H 
  B225     1.0000 0.92810  0.13260  0.00000  Biso   1.000  B 
  B226     1.0000 0.88280  0.11720  0.00000  Biso   1.000  B 
  B227     1.0000 0.86740  0.07190  0.00000  Biso   1.000  B 
  B228     1.0000 0.84350  0.15650  0.00000  Biso   1.000  B 
  B229     1.0000 0.85530  0.20580  0.00000  Biso   1.000  B 
  B230     1.0000 0.79420  0.14470  0.00000  Biso   1.000  B 
  B231     1.0000 0.82050  0.24200  0.00000  Biso   1.000  B 
  B232     1.0000 0.88860  0.21490  0.00000  Biso   1.000  B 
  B233     1.0000 0.75800  0.17950  0.00000  Biso   1.000  B 
  B234     1.0000 0.78510  0.11140  0.00000  Biso   1.000  B 
  B235     1.0000 0.76930  0.23070  0.00000  Biso   1.000  B 
  B236     1.0000 0.73070  0.26930  0.00000  Biso   1.000  B 
  B237     1.0000 0.83050  0.27510  0.00000  Biso   1.000  B 
  B238     1.0000 0.74200  0.32050  0.00000  Biso   1.000  B 
  N15      1.0000 0.70580  0.15888  0.00518  Biso   1.000  N 
  B239     1.0000 0.67950  0.25800  0.00000  Biso   1.000  B 
  B240     1.0000 0.70580  0.35530  0.00000  Biso   1.000  B 
  N16      1.0000 0.79458  0.34119  0.99457  Biso   1.000  N 
  B241     1.0000 0.64470  0.29420  0.00000  Biso   1.000  B 
  B242     1.0000 0.66950  0.22490  0.00000  Biso   1.000  B 
  B243     1.0000 0.65650  0.34350  0.00000  Biso   1.000  B 
  B244     1.0000 0.61720  0.38280  0.00000  Biso   1.000  B 
  B245     1.0000 0.71490  0.38860  0.00000  Biso   1.000  B 
  B246     1.0000 0.61140  0.28510  0.00000  Biso   1.000  B 
  B247     1.0000 0.63260  0.42810  0.00000  Biso   1.000  B 
  B248     1.0000 0.57190  0.36740  0.00000  Biso   1.000  B 
  H29      1.0000 0.79429  0.36268  0.96211  Biso   1.000  H 
  H30      1.0000 0.80316  0.36326  0.02551  Biso   1.000  H 
  H31      1.0000 0.69822  0.13701  0.97402  Biso   1.000  H 
  H32      1.0000 0.70363  0.13499  0.03578  Biso   1.000  H 
  B249     1.0000 0.00000  0.07190  0.13260  Biso   1.000  B 
  B250     1.0000 0.00000  0.11720  0.11720  Biso   1.000  B 
  B251     1.0000 0.00000  0.13260  0.07190  Biso   1.000  B 
  B252     1.0000 0.00000  0.15650  0.15650  Biso   1.000  B 
  B253     1.0000 0.00000  0.14470  0.20580  Biso   1.000  B 
  B254     1.0000 0.00000  0.20580  0.14470  Biso   1.000  B 
  B255     1.0000 0.00000  0.17950  0.24200  Biso   1.000  B 
  B256     1.0000 0.00000  0.11140  0.21490  Biso   1.000  B 
  B257     1.0000 0.00000  0.24200  0.17950  Biso   1.000  B 
  B258     1.0000 0.00000  0.21490  0.11140  Biso   1.000  B 
  B259     1.0000 0.00000  0.23070  0.23070  Biso   1.000  B 
  B260     1.0000 0.00000  0.26930  0.26930  Biso   1.000  B 
  B261     1.0000 0.00000  0.16950  0.27510  Biso   1.000  B 
  B262     1.0000 0.00000  0.25800  0.32050  Biso   1.000  B 
  N17      1.0000 0.00543  0.29455  0.15883  Biso   1.000  N 
  B263     1.0000 0.00000  0.32050  0.25800  Biso   1.000  B 
  B264     1.0000 0.00000  0.29420  0.35530  Biso   1.000  B 
  N18      1.0000 0.99439  0.20556  0.34124  Biso   1.000  N 
  B265     1.0000 0.00000  0.35530  0.29420  Biso   1.000  B 
  B266     1.0000 0.00000  0.33050  0.22490  Biso   1.000  B 
  B267     1.0000 0.00000  0.34350  0.34350  Biso   1.000  B 
  B268     1.0000 0.00000  0.38280  0.38280  Biso   1.000  B 
  B269     1.0000 0.00000  0.28510  0.38860  Biso   1.000  B 
  B270     1.0000 0.00000  0.38860  0.28510  Biso   1.000  B 
  B271     1.0000 0.00000  0.36740  0.42810  Biso   1.000  B 
  B272     1.0000 0.00000  0.42810  0.36740  Biso   1.000  B 
  H33      1.0000 0.96094  0.20506  0.36127  Biso   1.000  H 
  H34      1.0000 0.02397  0.19737  0.36543  Biso   1.000  H 
  H35      1.0000 0.97442  0.30304  0.13684  Biso   1.000  H 
  H36      1.0000 0.03768  0.29460  0.13692  Biso   1.000  H 
  B273     1.0000 0.00000  0.07190  0.86740  Biso   1.000  B 
  B274     1.0000 0.00000  0.11720  0.88280  Biso   1.000  B 
  B275     1.0000 0.00000  0.13260  0.92810  Biso   1.000  B 
  B276     1.0000 0.00000  0.15650  0.84350  Biso   1.000  B 
  B277     1.0000 0.00000  0.14470  0.79420  Biso   1.000  B 
  B278     1.0000 0.00000  0.20580  0.85530  Biso   1.000  B 
  B279     1.0000 0.00000  0.17950  0.75800  Biso   1.000  B 
  B280     1.0000 0.00000  0.11140  0.78510  Biso   1.000  B 
  B281     1.0000 0.00000  0.24200  0.82050  Biso   1.000  B 
  B282     1.0000 0.00000  0.21490  0.88860  Biso   1.000  B 
  B283     1.0000 0.00000  0.23070  0.76930  Biso   1.000  B 
  B284     1.0000 0.00000  0.26930  0.73070  Biso   1.000  B 
  B285     1.0000 0.00000  0.16950  0.72490  Biso   1.000  B 
  B286     1.0000 0.00000  0.25800  0.67950  Biso   1.000  B 
  N19      1.0000 0.00543  0.29459  0.84120  Biso   1.000  N 
  B287     1.0000 0.00000  0.32050  0.74200  Biso   1.000  B 
  B288     1.0000 0.00000  0.29420  0.64470  Biso   1.000  B 
  N20      1.0000 0.99456  0.20549  0.65875  Biso   1.000  N 
  B289     1.0000 0.00000  0.35530  0.70580  Biso   1.000  B 
  B290     1.0000 0.00000  0.33050  0.77510  Biso   1.000  B 
  B291     1.0000 0.00000  0.34350  0.65650  Biso   1.000  B 
  B292     1.0000 0.00000  0.38280  0.61720  Biso   1.000  B 
  B293     1.0000 0.00000  0.28510  0.61140  Biso   1.000  B 
  B294     1.0000 0.00000  0.38860  0.71490  Biso   1.000  B 
  B295     1.0000 0.00000  0.36740  0.57190  Biso   1.000  B 
  B296     1.0000 0.00000  0.42810  0.63260  Biso   1.000  B 
  H37      1.0000 0.96123  0.20558  0.63859  Biso   1.000  H 
  H38      1.0000 0.02451  0.19708  0.63514  Biso   1.000  H 
  H39      1.0000 0.97451  0.30317  0.86330  Biso   1.000  H 
  H40      1.0000 0.03793  0.29424  0.86259  Biso   1.000  H 
  B297     1.0000 0.00000  0.92810  0.86740  Biso   1.000  B 
  B298     1.0000 0.00000  0.88280  0.88280  Biso   1.000  B 
  B299     1.0000 0.00000  0.86740  0.92810  Biso   1.000  B 
  B300     1.0000 0.00000  0.84350  0.84350  Biso   1.000  B 
  B301     1.0000 0.00000  0.85530  0.79420  Biso   1.000  B 
  B302     1.0000 0.00000  0.79420  0.85530  Biso   1.000  B 
  B303     1.0000 0.00000  0.82050  0.75800  Biso   1.000  B 
  B304     1.0000 0.00000  0.88860  0.78510  Biso   1.000  B 
  B305     1.0000 0.00000  0.75800  0.82050  Biso   1.000  B 
  B306     1.0000 0.00000  0.78510  0.88860  Biso   1.000  B 
  B307     1.0000 0.00000  0.76930  0.76930  Biso   1.000  B 
  B308     1.0000 0.00000  0.73070  0.73070  Biso   1.000  B 
  B309     1.0000 0.00000  0.83050  0.72490  Biso   1.000  B 
  B310     1.0000 0.00000  0.74200  0.67950  Biso   1.000  B 
  N21      1.0000 0.00543  0.70540  0.84121  Biso   1.000  N 
  B311     1.0000 0.00000  0.67950  0.74200  Biso   1.000  B 
  B312     1.0000 0.00000  0.70580  0.64470  Biso   1.000  B 
  N22      1.0000 0.99534  0.79422  0.65876  Biso   1.000  N 
  B313     1.0000 0.00000  0.64470  0.70580  Biso   1.000  B 
  B314     1.0000 0.00000  0.66950  0.77510  Biso   1.000  B 
  B315     1.0000 0.00000  0.65650  0.65650  Biso   1.000  B 
  B316     1.0000 0.00000  0.61720  0.61720  Biso   1.000  B 
  B317     1.0000 0.00000  0.71490  0.61140  Biso   1.000  B 
  B318     1.0000 0.00000  0.61140  0.71490  Biso   1.000  B 
  B319     1.0000 0.00000  0.63260  0.57190  Biso   1.000  B 
  B320     1.0000 0.00000  0.57190  0.63260  Biso   1.000  B 
  H41      1.0000 0.96182  0.79880  0.63981  Biso   1.000  H 
  H42      1.0000 0.02347  0.79997  0.63254  Biso   1.000  H 
  H43      1.0000 0.97459  0.69678  0.86341  Biso   1.000  H 
  H44      1.0000 0.03806  0.70592  0.86234  Biso   1.000  H 
  B321     1.0000 0.00000  0.92810  0.13260  Biso   1.000  B 
  B322     1.0000 0.00000  0.88280  0.11720  Biso   1.000  B 
  B323     1.0000 0.00000  0.86740  0.07190  Biso   1.000  B 
  B324     1.0000 0.00000  0.84350  0.15650  Biso   1.000  B 
  B325     1.0000 0.00000  0.85530  0.20580  Biso   1.000  B 
  B326     1.0000 0.00000  0.79420  0.14470  Biso   1.000  B 
  B327     1.0000 0.00000  0.82050  0.24200  Biso   1.000  B 
  B328     1.0000 0.00000  0.88860  0.21490  Biso   1.000  B 
  B329     1.0000 0.00000  0.75800  0.17950  Biso   1.000  B 
  B330     1.0000 0.00000  0.78510  0.11140  Biso   1.000  B 
  B331     1.0000 0.00000  0.76930  0.23070  Biso   1.000  B 
  B332     1.0000 0.00000  0.73070  0.26930  Biso   1.000  B 
  B333     1.0000 0.00000  0.83050  0.27510  Biso   1.000  B 
  B334     1.0000 0.00000  0.74200  0.32050  Biso   1.000  B 
  N23      1.0000 0.00544  0.70543  0.15882  Biso   1.000  N 
  B335     1.0000 0.00000  0.67950  0.25800  Biso   1.000  B 
  B336     1.0000 0.00000  0.70580  0.35530  Biso   1.000  B 
  N24      1.0000 0.99581  0.79417  0.34122  Biso   1.000  N 
  B337     1.0000 0.00000  0.64470  0.29420  Biso   1.000  B 
  B338     1.0000 0.00000  0.66950  0.22490  Biso   1.000  B 
  B339     1.0000 0.00000  0.65650  0.34350  Biso   1.000  B 
  B340     1.0000 0.00000  0.61720  0.38280  Biso   1.000  B 
  B341     1.0000 0.00000  0.71490  0.38860  Biso   1.000  B 
  B342     1.0000 0.00000  0.61140  0.28510  Biso   1.000  B 
  B343     1.0000 0.00000  0.63260  0.42810  Biso   1.000  B 
  B344     1.0000 0.00000  0.57190  0.36740  Biso   1.000  B 
  H45      1.0000 0.96234  0.79985  0.35988  Biso   1.000  H 
  H46      1.0000 0.02371  0.79920  0.36772  Biso   1.000  H 
  H47      1.0000 0.97446  0.69689  0.13679  Biso   1.000  H 
  H48      1.0000 0.03780  0.70558  0.13715  Biso   1.000  H 
  B345     1.0000 0.13260  0.50000  0.57190  Biso   1.000  B 
  B346     1.0000 0.11720  0.50000  0.61720  Biso   1.000  B 
  B347     1.0000 0.07190  0.50000  0.63260  Biso   1.000  B 
  B348     1.0000 0.15650  0.50000  0.65650  Biso   1.000  B 
  B349     1.0000 0.20580  0.50000  0.64470  Biso   1.000  B 
  B350     1.0000 0.14470  0.50000  0.70580  Biso   1.000  B 
  B351     1.0000 0.24200  0.50000  0.67950  Biso   1.000  B 
  B352     1.0000 0.21490  0.50000  0.61140  Biso   1.000  B 
  B353     1.0000 0.17950  0.50000  0.74200  Biso   1.000  B 
  B354     1.0000 0.11140  0.50000  0.71490  Biso   1.000  B 
  B355     1.0000 0.23070  0.50000  0.73070  Biso   1.000  B 
  B356     1.0000 0.26930  0.50000  0.76930  Biso   1.000  B 
  B357     1.0000 0.27510  0.50000  0.66950  Biso   1.000  B 
  B358     1.0000 0.32050  0.50000  0.75800  Biso   1.000  B 
  N25      1.0000 0.15881  0.50549  0.79416  Biso   1.000  N 
  B359     1.0000 0.25800  0.50000  0.82050  Biso   1.000  B 
  B360     1.0000 0.35530  0.50000  0.79420  Biso   1.000  B 
  N26      1.0000 0.34403  0.50889  0.70529  Biso   1.000  N 
  B361     1.0000 0.29420  0.50000  0.85530  Biso   1.000  B 
  B362     1.0000 0.22490  0.50000  0.83050  Biso   1.000  B 
  B363     1.0000 0.34350  0.50000  0.84350  Biso   1.000  B 
  B364     1.0000 0.38280  0.50000  0.88280  Biso   1.000  B 
  B365     1.0000 0.38860  0.50000  0.78510  Biso   1.000  B 
  B366     1.0000 0.28510  0.50000  0.88860  Biso   1.000  B 
  B367     1.0000 0.42810  0.50000  0.86740  Biso   1.000  B 
  B368     1.0000 0.36740  0.50000  0.92810  Biso   1.000  B 
  H49      1.0000 0.34061  0.54590  0.69053  Biso   1.000  H 
  H50      1.0000 0.38056  0.49411  0.70086  Biso   1.000  H 
  H51      1.0000 0.14479  0.47163  0.80815  Biso   1.000  H 
  H52      1.0000 0.13040  0.53225  0.79399  Biso   1.000  H 
  B369     1.0000 0.86740  0.50000  0.57190  Biso   1.000  B 
  B370     1.0000 0.88280  0.50000  0.61720  Biso   1.000  B 
  B371     1.0000 0.92810  0.50000  0.63260  Biso   1.000  B 
  B372     1.0000 0.84350  0.50000  0.65650  Biso   1.000  B 
  B373     1.0000 0.79420  0.50000  0.64470  Biso   1.000  B 
  B374     1.0000 0.85530  0.50000  0.70580  Biso   1.000  B 
  B375     1.0000 0.75800  0.50000  0.67950  Biso   1.000  B 
  B376     1.0000 0.78510  0.50000  0.61140  Biso   1.000  B 
  B377     1.0000 0.82050  0.50000  0.74200  Biso   1.000  B 
  B378     1.0000 0.88860  0.50000  0.71490  Biso   1.000  B 
  B379     1.0000 0.76930  0.50000  0.73070  Biso   1.000  B 
  B380     1.0000 0.73070  0.50000  0.76930  Biso   1.000  B 
  B381     1.0000 0.72490  0.50000  0.66950  Biso   1.000  B 
  B382     1.0000 0.67950  0.50000  0.75800  Biso   1.000  B 
  N27      1.0000 0.84143  0.49992  0.79316  Biso   1.000  N 
  B383     1.0000 0.74200  0.50000  0.82050  Biso   1.000  B 
  B384     1.0000 0.64470  0.50000  0.79420  Biso   1.000  B 
  N28      1.0000 0.65634  0.50669  0.70332  Biso   1.000  N 
  B385     1.0000 0.70580  0.50000  0.85530  Biso   1.000  B 
  B386     1.0000 0.77510  0.50000  0.83050  Biso   1.000  B 
  B387     1.0000 0.65650  0.50000  0.84350  Biso   1.000  B 
  B388     1.0000 0.61720  0.50000  0.88280  Biso   1.000  B 
  B389     1.0000 0.61140  0.50000  0.78510  Biso   1.000  B 
  B390     1.0000 0.71490  0.50000  0.88860  Biso   1.000  B 
  B391     1.0000 0.57190  0.50000  0.86740  Biso   1.000  B 
  B392     1.0000 0.63260  0.50000  0.92810  Biso   1.000  B 
  H53      1.0000 0.65651  0.54262  0.69056  Biso   1.000  H 
  H54      1.0000 0.62155  0.48958  0.69938  Biso   1.000  H 
  H55      1.0000 0.85996  0.46652  0.79946  Biso   1.000  H 
  H56      1.0000 0.86768  0.52889  0.79371  Biso   1.000  H 
  B393     1.0000 0.86740  0.50000  0.42810  Biso   1.000  B 
  B394     1.0000 0.88280  0.50000  0.38280  Biso   1.000  B 
  B395     1.0000 0.92810  0.50000  0.36740  Biso   1.000  B 
  B396     1.0000 0.84350  0.50000  0.34350  Biso   1.000  B 
  B397     1.0000 0.79420  0.50000  0.35530  Biso   1.000  B 
  B398     1.0000 0.85530  0.50000  0.29420  Biso   1.000  B 
  B399     1.0000 0.75800  0.50000  0.32050  Biso   1.000  B 
  B400     1.0000 0.78510  0.50000  0.38860  Biso   1.000  B 
  B401     1.0000 0.82050  0.50000  0.25800  Biso   1.000  B 
  B402     1.0000 0.88860  0.50000  0.28510  Biso   1.000  B 
  B403     1.0000 0.76930  0.50000  0.26930  Biso   1.000  B 
  B404     1.0000 0.73070  0.50000  0.23070  Biso   1.000  B 
  B405     1.0000 0.72490  0.50000  0.33050  Biso   1.000  B 
  B406     1.0000 0.67950  0.50000  0.24200  Biso   1.000  B 
  N29      1.0000 0.84132  0.49898  0.20593  Biso   1.000  N 
  B407     1.0000 0.74200  0.50000  0.17950  Biso   1.000  B 
  B408     1.0000 0.64470  0.50000  0.20580  Biso   1.000  B 
  N30      1.0000 0.65852  0.49399  0.29322  Biso   1.000  N 
  B409     1.0000 0.70580  0.50000  0.14470  Biso   1.000  B 
  B410     1.0000 0.77510  0.50000  0.16950  Biso   1.000  B 
  B411     1.0000 0.65650  0.50000  0.15650  Biso   1.000  B 
  B412     1.0000 0.61720  0.50000  0.11720  Biso   1.000  B 
  B413     1.0000 0.61140  0.50000  0.21490  Biso   1.000  B 
  B414     1.0000 0.71490  0.50000  0.11140  Biso   1.000  B 
  B415     1.0000 0.57190  0.50000  0.13260  Biso   1.000  B 
  B416     1.0000 0.63260  0.50000  0.07190  Biso   1.000  B 
  H57      1.0000 0.63074  0.46556  0.29676  Biso   1.000  H 
  H58      1.0000 0.65436  0.52856  0.31023  Biso   1.000  H 
  H59      1.0000 0.86482  0.52935  0.19800  Biso   1.000  H 
  H60      1.0000 0.86465  0.46847  0.20030  Biso   1.000  H 
  B417     1.0000 0.13260  0.50000  0.42810  Biso   1.000  B 
  B418     1.0000 0.11720  0.50000  0.38280  Biso   1.000  B 
  B419     1.0000 0.07190  0.50000  0.36740  Biso   1.000  B 
  B420     1.0000 0.15650  0.50000  0.34350  Biso   1.000  B 
  B421     1.0000 0.20580  0.50000  0.35530  Biso   1.000  B 
  B422     1.0000 0.14470  0.50000  0.29420  Biso   1.000  B 
  B423     1.0000 0.24200  0.50000  0.32050  Biso   1.000  B 
  B424     1.0000 0.21490  0.50000  0.38860  Biso   1.000  B 
  B425     1.0000 0.17950  0.50000  0.25800  Biso   1.000  B 
  B426     1.0000 0.11140  0.50000  0.28510  Biso   1.000  B 
  B427     1.0000 0.23070  0.50000  0.26930  Biso   1.000  B 
  B428     1.0000 0.26930  0.50000  0.23070  Biso   1.000  B 
  B429     1.0000 0.27510  0.50000  0.33050  Biso   1.000  B 
  B430     1.0000 0.32050  0.50000  0.24200  Biso   1.000  B 
  N31      1.0000 0.15895  0.50587  0.20695  Biso   1.000  N 
  B431     1.0000 0.25800  0.50000  0.17950  Biso   1.000  B 
  B432     1.0000 0.35530  0.50000  0.20580  Biso   1.000  B 
  N32      1.0000 0.34152  0.49156  0.29376  Biso   1.000  N 
  B433     1.0000 0.29420  0.50000  0.14470  Biso   1.000  B 
  B434     1.0000 0.22490  0.50000  0.16950  Biso   1.000  B 
  B435     1.0000 0.34350  0.50000  0.15650  Biso   1.000  B 
  B436     1.0000 0.38280  0.50000  0.11720  Biso   1.000  B 
  B437     1.0000 0.38860  0.50000  0.21490  Biso   1.000  B 
  B438     1.0000 0.28510  0.50000  0.11140  Biso   1.000  B 
  B439     1.0000 0.42810  0.50000  0.13260  Biso   1.000  B 
  B440     1.0000 0.36740  0.50000  0.07190  Biso   1.000  B 
  H61      1.0000 0.36991  0.46534  0.29488  Biso   1.000  H 
  H62      1.0000 0.34601  0.52510  0.31171  Biso   1.000  H 
  H63      1.0000 0.14359  0.54126  0.20387  Biso   1.000  H 
  H64      1.0000 0.13140  0.47797  0.20302  Biso   1.000  H 
  B441     1.0000 0.07190  0.63260  0.50000  Biso   1.000  B 
  B442     1.0000 0.11720  0.61720  0.50000  Biso   1.000  B 
  B443     1.0000 0.13260  0.57190  0.50000  Biso   1.000  B 
  B444     1.0000 0.15650  0.65650  0.50000  Biso   1.000  B 
  B445     1.0000 0.14470  0.70580  0.50000  Biso   1.000  B 
  B446     1.0000 0.20580  0.64470  0.50000  Biso   1.000  B 
  B447     1.0000 0.17950  0.74200  0.50000  Biso   1.000  B 
  B448     1.0000 0.11140  0.71490  0.50000  Biso   1.000  B 
  B449     1.0000 0.24200  0.67950  0.50000  Biso   1.000  B 
  B450     1.0000 0.21490  0.61140  0.50000  Biso   1.000  B 
  B451     1.0000 0.23070  0.73070  0.50000  Biso   1.000  B 
  B452     1.0000 0.26930  0.76930  0.50000  Biso   1.000  B 
  B453     1.0000 0.16950  0.77510  0.50000  Biso   1.000  B 
  B454     1.0000 0.25800  0.82050  0.50000  Biso   1.000  B 
  N33      1.0000 0.29203  0.66094  0.52102  Biso   1.000  N 
  B455     1.0000 0.32050  0.75800  0.50000  Biso   1.000  B 
  B456     1.0000 0.29420  0.85530  0.50000  Biso   1.000  B 
  N34      1.0000 0.20647  0.84111  0.50993  Biso   1.000  N 
  B457     1.0000 0.35530  0.79420  0.50000  Biso   1.000  B 
  B458     1.0000 0.33050  0.72490  0.50000  Biso   1.000  B 
  B459     1.0000 0.34350  0.84350  0.50000  Biso   1.000  B 
  B460     1.0000 0.38280  0.88280  0.50000  Biso   1.000  B 
  B461     1.0000 0.28510  0.88860  0.50000  Biso   1.000  B 
  B462     1.0000 0.38860  0.78510  0.50000  Biso   1.000  B 
  B463     1.0000 0.36740  0.92810  0.50000  Biso   1.000  B 
  B464     1.0000 0.42810  0.86740  0.50000  Biso   1.000  B 
  H65      1.0000 0.19329  0.86686  0.48411  Biso   1.000  H 
  H66      1.0000 0.20348  0.86071  0.54345  Biso   1.000  H 
  H67      1.0000 0.30607  0.64211  0.48888  Biso   1.000  H 
  H68      1.0000 0.30212  0.65417  0.55683  Biso   1.000  H 
  B465     1.0000 0.07190  0.36740  0.50000  Biso   1.000  B 
  B466     1.0000 0.11720  0.38280  0.50000  Biso   1.000  B 
  B467     1.0000 0.13260  0.42810  0.50000  Biso   1.000  B 
  B468     1.0000 0.15650  0.34350  0.50000  Biso   1.000  B 
  B469     1.0000 0.14470  0.29420  0.50000  Biso   1.000  B 
  B470     1.0000 0.20580  0.35530  0.50000  Biso   1.000  B 
  B471     1.0000 0.17950  0.25800  0.50000  Biso   1.000  B 
  B472     1.0000 0.11140  0.28510  0.50000  Biso   1.000  B 
  B473     1.0000 0.24200  0.32050  0.50000  Biso   1.000  B 
  B474     1.0000 0.21490  0.38860  0.50000  Biso   1.000  B 
  B475     1.0000 0.23070  0.26930  0.50000  Biso   1.000  B 
  B476     1.0000 0.26930  0.23070  0.50000  Biso   1.000  B 
  B477     1.0000 0.16950  0.22490  0.50000  Biso   1.000  B 
  B478     1.0000 0.25800  0.17950  0.50000  Biso   1.000  B 
  N35      1.0000 0.29185  0.34146  0.51391  Biso   1.000  N 
  B479     1.0000 0.32050  0.24200  0.50000  Biso   1.000  B 
  B480     1.0000 0.29420  0.14470  0.50000  Biso   1.000  B 
  N36      1.0000 0.20696  0.16019  0.50974  Biso   1.000  N 
  B481     1.0000 0.35530  0.20580  0.50000  Biso   1.000  B 
  B482     1.0000 0.33050  0.27510  0.50000  Biso   1.000  B 
  B483     1.0000 0.34350  0.15650  0.50000  Biso   1.000  B 
  B484     1.0000 0.38280  0.11720  0.50000  Biso   1.000  B 
  B485     1.0000 0.28510  0.11140  0.50000  Biso   1.000  B 
  B486     1.0000 0.38860  0.21490  0.50000  Biso   1.000  B 
  B487     1.0000 0.36740  0.07190  0.50000  Biso   1.000  B 
  B488     1.0000 0.42810  0.13260  0.50000  Biso   1.000  B 
  H69      1.0000 0.19438  0.13643  0.48224  Biso   1.000  H 
  H70      1.0000 0.20912  0.13518  0.53889  Biso   1.000  H 
  H71      1.0000 0.29196  0.37530  0.53498  Biso   1.000  H 
  H72      1.0000 0.30890  0.34626  0.47709  Biso   1.000  H 
  B489     1.0000 0.92810  0.36740  0.50000  Biso   1.000  B 
  B490     1.0000 0.88280  0.38280  0.50000  Biso   1.000  B 
  B491     1.0000 0.86740  0.42810  0.50000  Biso   1.000  B 
  B492     1.0000 0.84350  0.34350  0.50000  Biso   1.000  B 
  B493     1.0000 0.85530  0.29420  0.50000  Biso   1.000  B 
  B494     1.0000 0.79420  0.35530  0.50000  Biso   1.000  B 
  B495     1.0000 0.82050  0.25800  0.50000  Biso   1.000  B 
  B496     1.0000 0.88860  0.28510  0.50000  Biso   1.000  B 
  B497     1.0000 0.75800  0.32050  0.50000  Biso   1.000  B 
  B498     1.0000 0.78510  0.38860  0.50000  Biso   1.000  B 
  B499     1.0000 0.76930  0.26930  0.50000  Biso   1.000  B 
  B500     1.0000 0.73070  0.23070  0.50000  Biso   1.000  B 
  B501     1.0000 0.83050  0.22490  0.50000  Biso   1.000  B 
  B502     1.0000 0.74200  0.17950  0.50000  Biso   1.000  B 
  N37      1.0000 0.70815  0.33965  0.51198  Biso   1.000  N 
  B503     1.0000 0.67950  0.24200  0.50000  Biso   1.000  B 
  B504     1.0000 0.70580  0.14470  0.50000  Biso   1.000  B 
  N38      1.0000 0.79304  0.16013  0.48976  Biso   1.000  N 
  B505     1.0000 0.64470  0.20580  0.50000  Biso   1.000  B 
  B506     1.0000 0.66950  0.27510  0.50000  Biso   1.000  B 
  B507     1.0000 0.65650  0.15650  0.50000  Biso   1.000  B 
  B508     1.0000 0.61720  0.11720  0.50000  Biso   1.000  B 
  B509     1.0000 0.71490  0.11140  0.50000  Biso   1.000  B 
  B510     1.0000 0.61140  0.21490  0.50000  Biso   1.000  B 
  B511     1.0000 0.63260  0.07190  0.50000  Biso   1.000  B 
  B512     1.0000 0.57190  0.13260  0.50000  Biso   1.000  B 
  H73      1.0000 0.80354  0.13513  0.51774  Biso   1.000  H 
  H74      1.0000 0.79186  0.13663  0.45927  Biso   1.000  H 
  H75      1.0000 0.69792  0.35630  0.47773  Biso   1.000  H 
  H76      1.0000 0.71256  0.37082  0.53333  Biso   1.000  H 
  B513     1.0000 0.92810  0.63260  0.50000  Biso   1.000  B 
  B514     1.0000 0.88280  0.61720  0.50000  Biso   1.000  B 
  B515     1.0000 0.86740  0.57190  0.50000  Biso   1.000  B 
  B516     1.0000 0.84350  0.65650  0.50000  Biso   1.000  B 
  B517     1.0000 0.85530  0.70580  0.50000  Biso   1.000  B 
  B518     1.0000 0.79420  0.64470  0.50000  Biso   1.000  B 
  B519     1.0000 0.82050  0.74200  0.50000  Biso   1.000  B 
  B520     1.0000 0.88860  0.71490  0.50000  Biso   1.000  B 
  B521     1.0000 0.75800  0.67950  0.50000  Biso   1.000  B 
  B522     1.0000 0.78510  0.61140  0.50000  Biso   1.000  B 
  B523     1.0000 0.76930  0.73070  0.50000  Biso   1.000  B 
  B524     1.0000 0.73070  0.76930  0.50000  Biso   1.000  B 
  B525     1.0000 0.83050  0.77510  0.50000  Biso   1.000  B 
  B526     1.0000 0.74200  0.82050  0.50000  Biso   1.000  B 
  N39      1.0000 0.70697  0.65909  0.49747  Biso   1.000  N 
  B527     1.0000 0.67950  0.75800  0.50000  Biso   1.000  B 
  B528     1.0000 0.70580  0.85530  0.50000  Biso   1.000  B 
  N40      1.0000 0.79302  0.83981  0.49021  Biso   1.000  N 
  B529     1.0000 0.64470  0.79420  0.50000  Biso   1.000  B 
  B530     1.0000 0.66950  0.72490  0.50000  Biso   1.000  B 
  B531     1.0000 0.65650  0.84350  0.50000  Biso   1.000  B 
  B532     1.0000 0.61720  0.88280  0.50000  Biso   1.000  B 
  B533     1.0000 0.71490  0.88860  0.50000  Biso   1.000  B 
  B534     1.0000 0.61140  0.78510  0.50000  Biso   1.000  B 
  B535     1.0000 0.63260  0.92810  0.50000  Biso   1.000  B 
  B536     1.0000 0.57190  0.86740  0.50000  Biso   1.000  B 
  H77      1.0000 0.80548  0.86367  0.51770  Biso   1.000  H 
  H78      1.0000 0.79088  0.86474  0.46100  Biso   1.000  H 
  H79      1.0000 0.70284  0.64194  0.46328  Biso   1.000  H 
  H80      1.0000 0.70849  0.62792  0.52064  Biso   1.000  H 
  B537     1.0000 0.50000  0.07190  0.63260  Biso   1.000  B 
  B538     1.0000 0.50000  0.11720  0.61720  Biso   1.000  B 
  B539     1.0000 0.50000  0.13260  0.57190  Biso   1.000  B 
  B540     1.0000 0.50000  0.15650  0.65650  Biso   1.000  B 
  B541     1.0000 0.50000  0.14470  0.70580  Biso   1.000  B 
  B542     1.0000 0.50000  0.20580  0.64470  Biso   1.000  B 
  B543     1.0000 0.50000  0.17950  0.74200  Biso   1.000  B 
  B544     1.0000 0.50000  0.11140  0.71490  Biso   1.000  B 
  B545     1.0000 0.50000  0.24200  0.67950  Biso   1.000  B 
  B546     1.0000 0.50000  0.21490  0.61140  Biso   1.000  B 
  B547     1.0000 0.50000  0.23070  0.73070  Biso   1.000  B 
  B548     1.0000 0.50000  0.26930  0.76930  Biso   1.000  B 
  B549     1.0000 0.50000  0.16950  0.77510  Biso   1.000  B 
  B550     1.0000 0.50000  0.25800  0.82050  Biso   1.000  B 
  N41      1.0000 0.50889  0.29387  0.65845  Biso   1.000  N 
  B551     1.0000 0.50000  0.32050  0.75800  Biso   1.000  B 
  B552     1.0000 0.50000  0.29420  0.85530  Biso   1.000  B 
  N42      1.0000 0.49927  0.20642  0.84228  Biso   1.000  N 
  B553     1.0000 0.50000  0.35530  0.79420  Biso   1.000  B 
  B554     1.0000 0.50000  0.33050  0.72490  Biso   1.000  B 
  B555     1.0000 0.50000  0.34350  0.84350  Biso   1.000  B 
  B556     1.0000 0.50000  0.38280  0.88280  Biso   1.000  B 
  B557     1.0000 0.50000  0.28510  0.88860  Biso   1.000  B 
  B558     1.0000 0.50000  0.38860  0.78510  Biso   1.000  B 
  B559     1.0000 0.50000  0.36740  0.92810  Biso   1.000  B 
  B560     1.0000 0.50000  0.42810  0.86740  Biso   1.000  B 
  H81      1.0000 0.53671  0.19474  0.84127  Biso   1.000  H 
  H82      1.0000 0.49169  0.20436  0.88080  Biso   1.000  H 
  H83      1.0000 0.47535  0.31170  0.65332  Biso   1.000  H 
  H84      1.0000 0.53482  0.29475  0.63004  Biso   1.000  H 
  B561     1.0000 0.50000  0.07190  0.36740  Biso   1.000  B 
  B562     1.0000 0.50000  0.11720  0.38280  Biso   1.000  B 
  B563     1.0000 0.50000  0.13260  0.42810  Biso   1.000  B 
  B564     1.0000 0.50000  0.15650  0.34350  Biso   1.000  B 
  B565     1.0000 0.50000  0.14470  0.29420  Biso   1.000  B 
  B566     1.0000 0.50000  0.20580  0.35530  Biso   1.000  B 
  B567     1.0000 0.50000  0.17950  0.25800  Biso   1.000  B 
  B568     1.0000 0.50000  0.11140  0.28510  Biso   1.000  B 
  B569     1.0000 0.50000  0.24200  0.32050  Biso   1.000  B 
  B570     1.0000 0.50000  0.21490  0.38860  Biso   1.000  B 
  B571     1.0000 0.50000  0.23070  0.26930  Biso   1.000  B 
  B572     1.0000 0.50000  0.26930  0.23070  Biso   1.000  B 
  B573     1.0000 0.50000  0.16950  0.22490  Biso   1.000  B 
  B574     1.0000 0.50000  0.25800  0.17950  Biso   1.000  B 
  N43      1.0000 0.50815  0.29294  0.33926  Biso   1.000  N 
  B575     1.0000 0.50000  0.32050  0.24200  Biso   1.000  B 
  B576     1.0000 0.50000  0.29420  0.14470  Biso   1.000  B 
  N44      1.0000 0.49632  0.20674  0.15871  Biso   1.000  N 
  B577     1.0000 0.50000  0.35530  0.20580  Biso   1.000  B 
  B578     1.0000 0.50000  0.33050  0.27510  Biso   1.000  B 
  B579     1.0000 0.50000  0.34350  0.15650  Biso   1.000  B 
  B580     1.0000 0.50000  0.38280  0.11720  Biso   1.000  B 
  B581     1.0000 0.50000  0.28510  0.11140  Biso   1.000  B 
  B582     1.0000 0.50000  0.38860  0.21490  Biso   1.000  B 
  B583     1.0000 0.50000  0.36740  0.07190  Biso   1.000  B 
  B584     1.0000 0.50000  0.42810  0.13260  Biso   1.000  B 
  H85      1.0000 0.52620  0.20418  0.13324  Biso   1.000  H 
  H86      1.0000 0.46175  0.20253  0.14156  Biso   1.000  H 
  H87      1.0000 0.47584  0.30003  0.36050  Biso   1.000  H 
  H88      1.0000 0.53521  0.28905  0.36522  Biso   1.000  H 
  B585     1.0000 0.50000  0.92810  0.36740  Biso   1.000  B 
  B586     1.0000 0.50000  0.88280  0.38280  Biso   1.000  B 
  B587     1.0000 0.50000  0.86740  0.42810  Biso   1.000  B 
  B588     1.0000 0.50000  0.84350  0.34350  Biso   1.000  B 
  B589     1.0000 0.50000  0.85530  0.29420  Biso   1.000  B 
  B590     1.0000 0.50000  0.79420  0.35530  Biso   1.000  B 
  B591     1.0000 0.50000  0.82050  0.25800  Biso   1.000  B 
  B592     1.0000 0.50000  0.88860  0.28510  Biso   1.000  B 
  B593     1.0000 0.50000  0.75800  0.32050  Biso   1.000  B 
  B594     1.0000 0.50000  0.78510  0.38860  Biso   1.000  B 
  B595     1.0000 0.50000  0.76930  0.26930  Biso   1.000  B 
  B596     1.0000 0.50000  0.73070  0.23070  Biso   1.000  B 
  B597     1.0000 0.50000  0.83050  0.22490  Biso   1.000  B 
  B598     1.0000 0.50000  0.74200  0.17950  Biso   1.000  B 
  N45      1.0000 0.50313  0.70867  0.33963  Biso   1.000  N 
  B599     1.0000 0.50000  0.67950  0.24200  Biso   1.000  B 
  B600     1.0000 0.50000  0.70580  0.14470  Biso   1.000  B 
  N46      1.0000 0.51002  0.79349  0.15935  Biso   1.000  N 
  B601     1.0000 0.50000  0.64470  0.20580  Biso   1.000  B 
  B602     1.0000 0.50000  0.66950  0.27510  Biso   1.000  B 
  B603     1.0000 0.50000  0.65650  0.15650  Biso   1.000  B 
  B604     1.0000 0.50000  0.61720  0.11720  Biso   1.000  B 
  B605     1.0000 0.50000  0.71490  0.11140  Biso   1.000  B 
  B606     1.0000 0.50000  0.61140  0.21490  Biso   1.000  B 
  B607     1.0000 0.50000  0.63260  0.07190  Biso   1.000  B 
  B608     1.0000 0.50000  0.57190  0.13260  Biso   1.000  B 
  H89      1.0000 0.47936  0.80225  0.13637  Biso   1.000  H 
  H90      1.0000 0.54252  0.79569  0.13779  Biso   1.000  H 
  H91      1.0000 0.53414  0.70985  0.36190  Biso   1.000  H 
  H92      1.0000 0.47494  0.70268  0.36729  Biso   1.000  H 
  B609     1.0000 0.50000  0.92810  0.63260  Biso   1.000  B 
  B610     1.0000 0.50000  0.88280  0.61720  Biso   1.000  B 
  B611     1.0000 0.50000  0.86740  0.57190  Biso   1.000  B 
  B612     1.0000 0.50000  0.84350  0.65650  Biso   1.000  B 
  B613     1.0000 0.50000  0.85530  0.70580  Biso   1.000  B 
  B614     1.0000 0.50000  0.79420  0.64470  Biso   1.000  B 
  B615     1.0000 0.50000  0.82050  0.74200  Biso   1.000  B 
  B616     1.0000 0.50000  0.88860  0.71490  Biso   1.000  B 
  B617     1.0000 0.50000  0.75800  0.67950  Biso   1.000  B 
  B618     1.0000 0.50000  0.78510  0.61140  Biso   1.000  B 
  B619     1.0000 0.50000  0.76930  0.73070  Biso   1.000  B 
  B620     1.0000 0.50000  0.73070  0.76930  Biso   1.000  B 
  B621     1.0000 0.50000  0.83050  0.77510  Biso   1.000  B 
  B622     1.0000 0.50000  0.74200  0.82050  Biso   1.000  B 
  N47      1.0000 0.49504  0.70717  0.65992  Biso   1.000  N 
  B623     1.0000 0.50000  0.67950  0.75800  Biso   1.000  B 
  B624     1.0000 0.50000  0.70580  0.85530  Biso   1.000  B 
  N48      1.0000 0.50017  0.79403  0.84124  Biso   1.000  N 
  B625     1.0000 0.50000  0.64470  0.79420  Biso   1.000  B 
  B626     1.0000 0.50000  0.66950  0.72490  Biso   1.000  B 
  B627     1.0000 0.50000  0.65650  0.84350  Biso   1.000  B 
  B628     1.0000 0.50000  0.61720  0.88280  Biso   1.000  B 
  B629     1.0000 0.50000  0.71490  0.88860  Biso   1.000  B 
  B630     1.0000 0.50000  0.61140  0.78510  Biso   1.000  B 
  B631     1.0000 0.50000  0.63260  0.92810  Biso   1.000  B 
  B632     1.0000 0.50000  0.57190  0.86740  Biso   1.000  B 
  H93      1.0000 0.46925  0.80137  0.86344  Biso   1.000  H 
  H94      1.0000 0.52979  0.80008  0.86621  Biso   1.000  H 
  H95      1.0000 0.52454  0.70425  0.63596  Biso   1.000  H 
  H96      1.0000 0.46349  0.70972  0.63977  Biso   1.000  H 
