data_image0
_cell_length_a       26.896
_cell_length_b       26.896
_cell_length_c       26.896
_cell_angle_alpha    90
_cell_angle_beta     90
_cell_angle_gamma    90

_symmetry_space_group_name_H-M    "P 1"
_symmetry_int_tables_number       1

loop_
  _symmetry_equiv_pos_as_xyz
  'x, y, z'

loop_
  _atom_site_label
  _atom_site_occupancy
  _atom_site_fract_x
  _atom_site_fract_y
  _atom_site_fract_z
  _atom_site_thermal_displace_type
  _atom_site_B_iso_or_equiv
  _atom_site_type_symbol
  B1       1.0000 0.09204  0.00000  0.00000  Biso   1.000  B 
  B2       1.0000 0.90796  0.00000  0.00000  Biso   1.000  B 
  B3       1.0000 0.00000  0.09204  0.00000  Biso   1.000  B 
  B4       1.0000 0.00000  0.90796  0.00000  Biso   1.000  B 
  B5       1.0000 0.00000  0.00000  0.09204  Biso   1.000  B 
  B6       1.0000 0.00000  0.00000  0.90796  Biso   1.000  B 
  B7       1.0000 0.09204  0.50000  0.50000  Biso   1.000  B 
  B8       1.0000 0.90796  0.50000  0.50000  Biso   1.000  B 
  B9       1.0000 0.00000  0.59204  0.50000  Biso   1.000  B 
  B10      1.0000 0.00000  0.40796  0.50000  Biso   1.000  B 
  B11      1.0000 0.00000  0.50000  0.59204  Biso   1.000  B 
  B12      1.0000 0.00000  0.50000  0.40796  Biso   1.000  B 
  B13      1.0000 0.59204  0.00000  0.50000  Biso   1.000  B 
  B14      1.0000 0.40796  0.00000  0.50000  Biso   1.000  B 
  B15      1.0000 0.50000  0.09204  0.50000  Biso   1.000  B 
  B16      1.0000 0.50000  0.90796  0.50000  Biso   1.000  B 
  B17      1.0000 0.50000  0.00000  0.59204  Biso   1.000  B 
  B18      1.0000 0.50000  0.00000  0.40796  Biso   1.000  B 
  B19      1.0000 0.59204  0.50000  0.00000  Biso   1.000  B 
  B20      1.0000 0.40796  0.50000  0.00000  Biso   1.000  B 
  B21      1.0000 0.50000  0.59204  0.00000  Biso   1.000  B 
  B22      1.0000 0.50000  0.40796  0.00000  Biso   1.000  B 
  B23      1.0000 0.50000  0.50000  0.09204  Biso   1.000  B 
  B24      1.0000 0.50000  0.50000  0.90796  Biso   1.000  B 
  B25      1.0000 0.04540  0.04540  0.04540  Biso   1.000  B 
  B26      1.0000 0.95460  0.95460  0.04540  Biso   1.000  B 
  B27      1.0000 0.95460  0.04540  0.95460  Biso   1.000  B 
  B28      1.0000 0.04540  0.95460  0.95460  Biso   1.000  B 
  B29      1.0000 0.04540  0.04540  0.95460  Biso   1.000  B 
  B30      1.0000 0.95460  0.95460  0.95460  Biso   1.000  B 
  B31      1.0000 0.04540  0.95460  0.04540  Biso   1.000  B 
  B32      1.0000 0.95460  0.04540  0.04540  Biso   1.000  B 
  B33      1.0000 0.04540  0.54540  0.54540  Biso   1.000  B 
  B34      1.0000 0.95460  0.45460  0.54540  Biso   1.000  B 
  B35      1.0000 0.95460  0.54540  0.45460  Biso   1.000  B 
  B36      1.0000 0.04540  0.45460  0.45460  Biso   1.000  B 
  B37      1.0000 0.04540  0.54540  0.45460  Biso   1.000  B 
  B38      1.0000 0.95460  0.45460  0.45460  Biso   1.000  B 
  B39      1.0000 0.04540  0.45460  0.54540  Biso   1.000  B 
  B40      1.0000 0.95460  0.54540  0.54540  Biso   1.000  B 
  B41      1.0000 0.54540  0.04540  0.54540  Biso   1.000  B 
  B42      1.0000 0.45460  0.95460  0.54540  Biso   1.000  B 
  B43      1.0000 0.45460  0.04540  0.45460  Biso   1.000  B 
  B44      1.0000 0.54540  0.95460  0.45460  Biso   1.000  B 
  B45      1.0000 0.54540  0.04540  0.45460  Biso   1.000  B 
  B46      1.0000 0.45460  0.95460  0.45460  Biso   1.000  B 
  B47      1.0000 0.54540  0.95460  0.54540  Biso   1.000  B 
  B48      1.0000 0.45460  0.04540  0.54540  Biso   1.000  B 
  B49      1.0000 0.54540  0.54540  0.04540  Biso   1.000  B 
  B50      1.0000 0.45460  0.45460  0.04540  Biso   1.000  B 
  B51      1.0000 0.45460  0.54540  0.95460  Biso   1.000  B 
  B52      1.0000 0.54540  0.45460  0.95460  Biso   1.000  B 
  B53      1.0000 0.54540  0.54540  0.95460  Biso   1.000  B 
  B54      1.0000 0.45460  0.45460  0.95460  Biso   1.000  B 
  B55      1.0000 0.54540  0.45460  0.04540  Biso   1.000  B 
  B56      1.0000 0.45460  0.54540  0.04540  Biso   1.000  B 
  B57      1.0000 0.13260  0.00000  0.07190  Biso   1.000  B 
  B58      1.0000 0.11720  0.00000  0.11720  Biso   1.000  B 
  B59      1.0000 0.07190  0.00000  0.13260  Biso   1.000  B 
  B60      1.0000 0.15650  0.00000  0.15650  Biso   1.000  B 
  B61      1.0000 0.20580  0.00000  0.14470  Biso   1.000  B 
  B62      1.0000 0.14470  0.00000  0.20580  Biso   1.000  B 
  B63      1.0000 0.24200  0.00000  0.17950  Biso   1.000  B 
  B64      1.0000 0.21490  0.00000  0.11140  Biso   1.000  B 
  B65      1.0000 0.17950  0.00000  0.24200  Biso   1.000  B 
  B66      1.0000 0.11140  0.00000  0.21490  Biso   1.000  B 
  B67      1.0000 0.23070  0.00000  0.23070  Biso   1.000  B 
  B68      1.0000 0.26930  0.00000  0.26930  Biso   1.000  B 
  B69      1.0000 0.27510  0.00000  0.16950  Biso   1.000  B 
  B70      1.0000 0.32050  0.00000  0.25800  Biso   1.000  B 
  B71      1.0000 0.16950  0.00000  0.27510  Biso   1.000  B 
  B72      1.0000 0.25800  0.00000  0.32050  Biso   1.000  B 
  B73      1.0000 0.35530  0.00000  0.29420  Biso   1.000  B 
  N1       1.0000 0.33973  0.01848  0.20757  Biso   1.000  N 
  B74      1.0000 0.29420  0.00000  0.35530  Biso   1.000  B 
  B75      1.0000 0.22490  0.00000  0.33050  Biso   1.000  B 
  B76      1.0000 0.34350  0.00000  0.34350  Biso   1.000  B 
  B77      1.0000 0.38280  0.00000  0.38280  Biso   1.000  B 
  B78      1.0000 0.38860  0.00000  0.28510  Biso   1.000  B 
  B79      1.0000 0.28510  0.00000  0.38860  Biso   1.000  B 
  B80      1.0000 0.42810  0.00000  0.36740  Biso   1.000  B 
  B81      1.0000 0.36740  0.00000  0.42810  Biso   1.000  B 
  H1       1.0000 0.33553  0.05699  0.20756  Biso   1.000  H 
  C1       1.0000 0.39109  0.00555  0.19038  Biso   1.000  C 
  C2       1.0000 0.40090  0.03209  0.13980  Biso   1.000  C 
  C3       1.0000 0.39756  0.99660  0.09437  Biso   1.000  C 
  H2       1.0000 0.41045  0.01865  0.06044  Biso   1.000  H 
  C4       1.0000 0.34480  0.97549  0.08502  Biso   1.000  C 
  H3       1.0000 0.42564  0.96718  0.09964  Biso   1.000  H 
  H4       1.0000 0.39767  0.96473  0.18973  Biso   1.000  H 
  H5       1.0000 0.41799  0.02226  0.21828  Biso   1.000  H 
  H6       1.0000 0.44034  0.04428  0.14093  Biso   1.000  H 
  H7       1.0000 0.37715  0.06447  0.13357  Biso   1.000  H 
  H8       1.0000 0.33524  0.97304  0.04384  Biso   1.000  H 
  H9       1.0000 0.31551  0.99970  0.10109  Biso   1.000  H 
  C5       1.0000 0.33785  0.92496  0.10973  Biso   1.000  C 
  H10      1.0000 0.37412  0.91042  0.12460  Biso   1.000  H 
  H11      1.0000 0.32293  0.89802  0.08385  Biso   1.000  H 
  H12      1.0000 0.31140  0.92886  0.14169  Biso   1.000  H 
  B82      1.0000 0.86740  0.00000  0.07190  Biso   1.000  B 
  B83      1.0000 0.88280  0.00000  0.11720  Biso   1.000  B 
  B84      1.0000 0.92810  0.00000  0.13260  Biso   1.000  B 
  B85      1.0000 0.84350  0.00000  0.15650  Biso   1.000  B 
  B86      1.0000 0.79420  0.00000  0.14470  Biso   1.000  B 
  B87      1.0000 0.85530  0.00000  0.20580  Biso   1.000  B 
  B88      1.0000 0.75800  0.00000  0.17950  Biso   1.000  B 
  B89      1.0000 0.78510  0.00000  0.11140  Biso   1.000  B 
  B90      1.0000 0.82050  0.00000  0.24200  Biso   1.000  B 
  B91      1.0000 0.88860  0.00000  0.21490  Biso   1.000  B 
  B92      1.0000 0.76930  0.00000  0.23070  Biso   1.000  B 
  B93      1.0000 0.73070  0.00000  0.26930  Biso   1.000  B 
  B94      1.0000 0.72490  0.00000  0.16950  Biso   1.000  B 
  B95      1.0000 0.67950  0.00000  0.25800  Biso   1.000  B 
  B96      1.0000 0.83050  0.00000  0.27510  Biso   1.000  B 
  B97      1.0000 0.74200  0.00000  0.32050  Biso   1.000  B 
  B98      1.0000 0.64470  0.00000  0.29420  Biso   1.000  B 
  N2       1.0000 0.66027  0.98151  0.20757  Biso   1.000  N 
  B99      1.0000 0.70580  0.00000  0.35530  Biso   1.000  B 
  B100     1.0000 0.77510  0.00000  0.33050  Biso   1.000  B 
  B101     1.0000 0.65650  0.00000  0.34350  Biso   1.000  B 
  B102     1.0000 0.61720  0.00000  0.38280  Biso   1.000  B 
  B103     1.0000 0.61140  0.00000  0.28510  Biso   1.000  B 
  B104     1.0000 0.71490  0.00000  0.38860  Biso   1.000  B 
  B105     1.0000 0.57190  0.00000  0.36740  Biso   1.000  B 
  B106     1.0000 0.63260  0.00000  0.42810  Biso   1.000  B 
  H13      1.0000 0.66447  0.94300  0.20757  Biso   1.000  H 
  C6       1.0000 0.60892  0.99445  0.19038  Biso   1.000  C 
  C7       1.0000 0.59911  0.96791  0.13980  Biso   1.000  C 
  C8       1.0000 0.60242  0.00340  0.09437  Biso   1.000  C 
  H14      1.0000 0.58952  0.98134  0.06044  Biso   1.000  H 
  C9       1.0000 0.65517  0.02451  0.08500  Biso   1.000  C 
  H15      1.0000 0.57434  0.03281  0.09965  Biso   1.000  H 
  H16      1.0000 0.60235  0.03528  0.18972  Biso   1.000  H 
  H17      1.0000 0.58201  0.97775  0.21828  Biso   1.000  H 
  H18      1.0000 0.55967  0.95569  0.14094  Biso   1.000  H 
  H19      1.0000 0.62287  0.93554  0.13357  Biso   1.000  H 
  H20      1.0000 0.66473  0.02696  0.04382  Biso   1.000  H 
  H21      1.0000 0.68447  0.00030  0.10107  Biso   1.000  H 
  C10      1.0000 0.66213  0.07504  0.10971  Biso   1.000  C 
  H22      1.0000 0.62586  0.08957  0.12461  Biso   1.000  H 
  H23      1.0000 0.67702  0.10198  0.08381  Biso   1.000  H 
  H24      1.0000 0.68860  0.07115  0.14164  Biso   1.000  H 
  B107     1.0000 0.86740  0.00000  0.92810  Biso   1.000  B 
  B108     1.0000 0.88280  0.00000  0.88280  Biso   1.000  B 
  B109     1.0000 0.92810  0.00000  0.86740  Biso   1.000  B 
  B110     1.0000 0.84350  0.00000  0.84350  Biso   1.000  B 
  B111     1.0000 0.79420  0.00000  0.85530  Biso   1.000  B 
  B112     1.0000 0.85530  0.00000  0.79420  Biso   1.000  B 
  B113     1.0000 0.75800  0.00000  0.82050  Biso   1.000  B 
  B114     1.0000 0.78510  0.00000  0.88860  Biso   1.000  B 
  B115     1.0000 0.82050  0.00000  0.75800  Biso   1.000  B 
  B116     1.0000 0.88860  0.00000  0.78510  Biso   1.000  B 
  B117     1.0000 0.76930  0.00000  0.76930  Biso   1.000  B 
  B118     1.0000 0.73070  0.00000  0.73070  Biso   1.000  B 
  B119     1.0000 0.72490  0.00000  0.83050  Biso   1.000  B 
  B120     1.0000 0.67950  0.00000  0.74200  Biso   1.000  B 
  B121     1.0000 0.83050  0.00000  0.72490  Biso   1.000  B 
  B122     1.0000 0.74200  0.00000  0.67950  Biso   1.000  B 
  B123     1.0000 0.64470  0.00000  0.70580  Biso   1.000  B 
  N3       1.0000 0.66027  0.01849  0.79243  Biso   1.000  N 
  B124     1.0000 0.70580  0.00000  0.64470  Biso   1.000  B 
  B125     1.0000 0.77510  0.00000  0.66950  Biso   1.000  B 
  B126     1.0000 0.65650  0.00000  0.65650  Biso   1.000  B 
  B127     1.0000 0.61720  0.00000  0.61720  Biso   1.000  B 
  B128     1.0000 0.61140  0.00000  0.71490  Biso   1.000  B 
  B129     1.0000 0.71490  0.00000  0.61140  Biso   1.000  B 
  B130     1.0000 0.57190  0.00000  0.63260  Biso   1.000  B 
  B131     1.0000 0.63260  0.00000  0.57190  Biso   1.000  B 
  H25      1.0000 0.66447  0.05700  0.79243  Biso   1.000  H 
  C11      1.0000 0.60892  0.00555  0.80962  Biso   1.000  C 
  C12      1.0000 0.59911  0.03209  0.86020  Biso   1.000  C 
  C13      1.0000 0.60242  0.99660  0.90563  Biso   1.000  C 
  H26      1.0000 0.58952  0.01866  0.93956  Biso   1.000  H 
  C14      1.0000 0.65518  0.97549  0.91500  Biso   1.000  C 
  H27      1.0000 0.57434  0.96719  0.90035  Biso   1.000  H 
  H28      1.0000 0.60234  0.96473  0.81028  Biso   1.000  H 
  H29      1.0000 0.58201  0.02225  0.78172  Biso   1.000  H 
  H30      1.0000 0.55967  0.04430  0.85906  Biso   1.000  H 
  H31      1.0000 0.62286  0.06446  0.86643  Biso   1.000  H 
  H32      1.0000 0.66473  0.97304  0.95618  Biso   1.000  H 
  H33      1.0000 0.68448  0.99970  0.89893  Biso   1.000  H 
  C15      1.0000 0.66213  0.92496  0.89029  Biso   1.000  C 
  H34      1.0000 0.62586  0.91043  0.87539  Biso   1.000  H 
  H35      1.0000 0.67703  0.89802  0.91618  Biso   1.000  H 
  H36      1.0000 0.68860  0.92885  0.85835  Biso   1.000  H 
  B132     1.0000 0.13260  0.00000  0.92810  Biso   1.000  B 
  B133     1.0000 0.11720  0.00000  0.88280  Biso   1.000  B 
  B134     1.0000 0.07190  0.00000  0.86740  Biso   1.000  B 
  B135     1.0000 0.15650  0.00000  0.84350  Biso   1.000  B 
  B136     1.0000 0.20580  0.00000  0.85530  Biso   1.000  B 
  B137     1.0000 0.14470  0.00000  0.79420  Biso   1.000  B 
  B138     1.0000 0.24200  0.00000  0.82050  Biso   1.000  B 
  B139     1.0000 0.21490  0.00000  0.88860  Biso   1.000  B 
  B140     1.0000 0.17950  0.00000  0.75800  Biso   1.000  B 
  B141     1.0000 0.11140  0.00000  0.78510  Biso   1.000  B 
  B142     1.0000 0.23070  0.00000  0.76930  Biso   1.000  B 
  B143     1.0000 0.26930  0.00000  0.73070  Biso   1.000  B 
  B144     1.0000 0.27510  0.00000  0.83050  Biso   1.000  B 
  B145     1.0000 0.32050  0.00000  0.74200  Biso   1.000  B 
  B146     1.0000 0.16950  0.00000  0.72490  Biso   1.000  B 
  B147     1.0000 0.25800  0.00000  0.67950  Biso   1.000  B 
  B148     1.0000 0.35530  0.00000  0.70580  Biso   1.000  B 
  N4       1.0000 0.33973  0.98151  0.79243  Biso   1.000  N 
  B149     1.0000 0.29420  0.00000  0.64470  Biso   1.000  B 
  B150     1.0000 0.22490  0.00000  0.66950  Biso   1.000  B 
  B151     1.0000 0.34350  0.00000  0.65650  Biso   1.000  B 
  B152     1.0000 0.38280  0.00000  0.61720  Biso   1.000  B 
  B153     1.0000 0.38860  0.00000  0.71490  Biso   1.000  B 
  B154     1.0000 0.28510  0.00000  0.61140  Biso   1.000  B 
  B155     1.0000 0.42810  0.00000  0.63260  Biso   1.000  B 
  B156     1.0000 0.36740  0.00000  0.57190  Biso   1.000  B 
  H37      1.0000 0.33553  0.94301  0.79243  Biso   1.000  H 
  C16      1.0000 0.39109  0.99445  0.80962  Biso   1.000  C 
  C17      1.0000 0.40089  0.96791  0.86020  Biso   1.000  C 
  C18      1.0000 0.39756  0.00340  0.90563  Biso   1.000  C 
  H38      1.0000 0.41046  0.98135  0.93956  Biso   1.000  H 
  C19      1.0000 0.34481  0.02451  0.91499  Biso   1.000  C 
  H39      1.0000 0.42564  0.03281  0.90036  Biso   1.000  H 
  H40      1.0000 0.39766  0.03527  0.81028  Biso   1.000  H 
  H41      1.0000 0.41799  0.97774  0.78172  Biso   1.000  H 
  H42      1.0000 0.44034  0.95572  0.85907  Biso   1.000  H 
  H43      1.0000 0.37715  0.93553  0.86643  Biso   1.000  H 
  H44      1.0000 0.33525  0.02696  0.95616  Biso   1.000  H 
  H45      1.0000 0.31551  0.00030  0.89891  Biso   1.000  H 
  C20      1.0000 0.33785  0.07504  0.89027  Biso   1.000  C 
  H46      1.0000 0.37413  0.08958  0.87540  Biso   1.000  H 
  H47      1.0000 0.32294  0.10198  0.91616  Biso   1.000  H 
  H48      1.0000 0.31140  0.07115  0.85832  Biso   1.000  H 
  B157     1.0000 0.07190  0.13260  0.00000  Biso   1.000  B 
  B158     1.0000 0.11720  0.11720  0.00000  Biso   1.000  B 
  B159     1.0000 0.13260  0.07190  0.00000  Biso   1.000  B 
  B160     1.0000 0.15650  0.15650  0.00000  Biso   1.000  B 
  B161     1.0000 0.14470  0.20580  0.00000  Biso   1.000  B 
  B162     1.0000 0.20580  0.14470  0.00000  Biso   1.000  B 
  B163     1.0000 0.17950  0.24200  0.00000  Biso   1.000  B 
  B164     1.0000 0.11140  0.21490  0.00000  Biso   1.000  B 
  B165     1.0000 0.24200  0.17950  0.00000  Biso   1.000  B 
  B166     1.0000 0.21490  0.11140  0.00000  Biso   1.000  B 
  B167     1.0000 0.23070  0.23070  0.00000  Biso   1.000  B 
  B168     1.0000 0.26930  0.26930  0.00000  Biso   1.000  B 
  B169     1.0000 0.16950  0.27510  0.00000  Biso   1.000  B 
  B170     1.0000 0.25800  0.32050  0.00000  Biso   1.000  B 
  B171     1.0000 0.27510  0.16950  0.00000  Biso   1.000  B 
  B172     1.0000 0.32050  0.25800  0.00000  Biso   1.000  B 
  B173     1.0000 0.29420  0.35530  0.00000  Biso   1.000  B 
  N5       1.0000 0.20576  0.34143  0.99279  Biso   1.000  N 
  B174     1.0000 0.35530  0.29420  0.00000  Biso   1.000  B 
  B175     1.0000 0.33050  0.22490  0.00000  Biso   1.000  B 
  B176     1.0000 0.34350  0.34350  0.00000  Biso   1.000  B 
  B177     1.0000 0.38280  0.38280  0.00000  Biso   1.000  B 
  B178     1.0000 0.28510  0.38860  0.00000  Biso   1.000  B 
  B179     1.0000 0.38860  0.28510  0.00000  Biso   1.000  B 
  B180     1.0000 0.36740  0.42810  0.00000  Biso   1.000  B 
  B181     1.0000 0.42810  0.36740  0.00000  Biso   1.000  B 
  H49      1.0000 0.20033  0.37189  0.01646  Biso   1.000  H 
  C21      1.0000 0.19546  0.35605  0.94126  Biso   1.000  C 
  C22      1.0000 0.14001  0.36940  0.93608  Biso   1.000  C 
  C23      1.0000 0.12422  0.37035  0.88175  Biso   1.000  C 
  H50      1.0000 0.08641  0.38702  0.87982  Biso   1.000  H 
  C24      1.0000 0.12270  0.31825  0.85812  Biso   1.000  C 
  H51      1.0000 0.15041  0.39445  0.86059  Biso   1.000  H 
  H52      1.0000 0.20650  0.32484  0.91684  Biso   1.000  H 
  H53      1.0000 0.21800  0.38920  0.93103  Biso   1.000  H 
  H54      1.0000 0.13376  0.40708  0.95204  Biso   1.000  H 
  H55      1.0000 0.11678  0.34212  0.95677  Biso   1.000  H 
  H56      1.0000 0.09183  0.29678  0.87531  Biso   1.000  H 
  H57      1.0000 0.15756  0.29695  0.86295  Biso   1.000  H 
  C25      1.0000 0.11394  0.32248  0.80212  Biso   1.000  C 
  H58      1.0000 0.15039  0.32152  0.78261  Biso   1.000  H 
  H59      1.0000 0.09459  0.35767  0.79232  Biso   1.000  H 
  H60      1.0000 0.09111  0.29089  0.78912  Biso   1.000  H 
  B182     1.0000 0.07190  0.86740  0.00000  Biso   1.000  B 
  B183     1.0000 0.11720  0.88280  0.00000  Biso   1.000  B 
  B184     1.0000 0.13260  0.92810  0.00000  Biso   1.000  B 
  B185     1.0000 0.15650  0.84350  0.00000  Biso   1.000  B 
  B186     1.0000 0.14470  0.79420  0.00000  Biso   1.000  B 
  B187     1.0000 0.20580  0.85530  0.00000  Biso   1.000  B 
  B188     1.0000 0.17950  0.75800  0.00000  Biso   1.000  B 
  B189     1.0000 0.11140  0.78510  0.00000  Biso   1.000  B 
  B190     1.0000 0.24200  0.82050  0.00000  Biso   1.000  B 
  B191     1.0000 0.21490  0.88860  0.00000  Biso   1.000  B 
  B192     1.0000 0.23070  0.76930  0.00000  Biso   1.000  B 
  B193     1.0000 0.26930  0.73070  0.00000  Biso   1.000  B 
  B194     1.0000 0.16950  0.72490  0.00000  Biso   1.000  B 
  B195     1.0000 0.25800  0.67950  0.00000  Biso   1.000  B 
  B196     1.0000 0.27510  0.83050  0.00000  Biso   1.000  B 
  B197     1.0000 0.32050  0.74200  0.00000  Biso   1.000  B 
  B198     1.0000 0.29420  0.64470  0.00000  Biso   1.000  B 
  N6       1.0000 0.20576  0.65857  0.00721  Biso   1.000  N 
  B199     1.0000 0.35530  0.70580  0.00000  Biso   1.000  B 
  B200     1.0000 0.33050  0.77510  0.00000  Biso   1.000  B 
  B201     1.0000 0.34350  0.65650  0.00000  Biso   1.000  B 
  B202     1.0000 0.38280  0.61720  0.00000  Biso   1.000  B 
  B203     1.0000 0.28510  0.61140  0.00000  Biso   1.000  B 
  B204     1.0000 0.38860  0.71490  0.00000  Biso   1.000  B 
  B205     1.0000 0.36740  0.57190  0.00000  Biso   1.000  B 
  B206     1.0000 0.42810  0.63260  0.00000  Biso   1.000  B 
  H61      1.0000 0.20033  0.62811  0.98354  Biso   1.000  H 
  C26      1.0000 0.19546  0.64395  0.05874  Biso   1.000  C 
  C27      1.0000 0.14001  0.63060  0.06393  Biso   1.000  C 
  C28      1.0000 0.12422  0.62964  0.11825  Biso   1.000  C 
  H62      1.0000 0.08641  0.61298  0.12018  Biso   1.000  H 
  C29      1.0000 0.12270  0.68174  0.14188  Biso   1.000  C 
  H63      1.0000 0.15041  0.60555  0.13941  Biso   1.000  H 
  H64      1.0000 0.20650  0.67516  0.08316  Biso   1.000  H 
  H65      1.0000 0.21800  0.61080  0.06897  Biso   1.000  H 
  H66      1.0000 0.13376  0.59292  0.04796  Biso   1.000  H 
  H67      1.0000 0.11678  0.65788  0.04323  Biso   1.000  H 
  H68      1.0000 0.09183  0.70322  0.12469  Biso   1.000  H 
  H69      1.0000 0.15756  0.70305  0.13705  Biso   1.000  H 
  C30      1.0000 0.11394  0.67752  0.19788  Biso   1.000  C 
  H70      1.0000 0.15039  0.67848  0.21738  Biso   1.000  H 
  H71      1.0000 0.09459  0.64233  0.20768  Biso   1.000  H 
  H72      1.0000 0.09111  0.70911  0.21087  Biso   1.000  H 
  B207     1.0000 0.92810  0.86740  0.00000  Biso   1.000  B 
  B208     1.0000 0.88280  0.88280  0.00000  Biso   1.000  B 
  B209     1.0000 0.86740  0.92810  0.00000  Biso   1.000  B 
  B210     1.0000 0.84350  0.84350  0.00000  Biso   1.000  B 
  B211     1.0000 0.85530  0.79420  0.00000  Biso   1.000  B 
  B212     1.0000 0.79420  0.85530  0.00000  Biso   1.000  B 
  B213     1.0000 0.82050  0.75800  0.00000  Biso   1.000  B 
  B214     1.0000 0.88860  0.78510  0.00000  Biso   1.000  B 
  B215     1.0000 0.75800  0.82050  0.00000  Biso   1.000  B 
  B216     1.0000 0.78510  0.88860  0.00000  Biso   1.000  B 
  B217     1.0000 0.76930  0.76930  0.00000  Biso   1.000  B 
  B218     1.0000 0.73070  0.73070  0.00000  Biso   1.000  B 
  B219     1.0000 0.83050  0.72490  0.00000  Biso   1.000  B 
  B220     1.0000 0.74200  0.67950  0.00000  Biso   1.000  B 
  B221     1.0000 0.72490  0.83050  0.00000  Biso   1.000  B 
  B222     1.0000 0.67950  0.74200  0.00000  Biso   1.000  B 
  B223     1.0000 0.70580  0.64470  0.00000  Biso   1.000  B 
  N7       1.0000 0.79424  0.65857  0.99279  Biso   1.000  N 
  B224     1.0000 0.64470  0.70580  0.00000  Biso   1.000  B 
  B225     1.0000 0.66950  0.77510  0.00000  Biso   1.000  B 
  B226     1.0000 0.65650  0.65650  0.00000  Biso   1.000  B 
  B227     1.0000 0.61720  0.61720  0.00000  Biso   1.000  B 
  B228     1.0000 0.71490  0.61140  0.00000  Biso   1.000  B 
  B229     1.0000 0.61140  0.71490  0.00000  Biso   1.000  B 
  B230     1.0000 0.63260  0.57190  0.00000  Biso   1.000  B 
  B231     1.0000 0.57190  0.63260  0.00000  Biso   1.000  B 
  H73      1.0000 0.79967  0.62811  0.01646  Biso   1.000  H 
  C31      1.0000 0.80454  0.64395  0.94126  Biso   1.000  C 
  C32      1.0000 0.85999  0.63060  0.93608  Biso   1.000  C 
  C33      1.0000 0.87578  0.62965  0.88175  Biso   1.000  C 
  H74      1.0000 0.91359  0.61298  0.87982  Biso   1.000  H 
  C34      1.0000 0.87730  0.68174  0.85812  Biso   1.000  C 
  H75      1.0000 0.84959  0.60555  0.86059  Biso   1.000  H 
  H76      1.0000 0.79350  0.67516  0.91684  Biso   1.000  H 
  H77      1.0000 0.78200  0.61080  0.93103  Biso   1.000  H 
  H78      1.0000 0.86624  0.59292  0.95204  Biso   1.000  H 
  H79      1.0000 0.88322  0.65788  0.95677  Biso   1.000  H 
  H80      1.0000 0.90817  0.70322  0.87531  Biso   1.000  H 
  H81      1.0000 0.84244  0.70305  0.86295  Biso   1.000  H 
  C35      1.0000 0.88606  0.67752  0.80212  Biso   1.000  C 
  H82      1.0000 0.84961  0.67848  0.78261  Biso   1.000  H 
  H83      1.0000 0.90541  0.64233  0.79232  Biso   1.000  H 
  H84      1.0000 0.90889  0.70911  0.78912  Biso   1.000  H 
  B232     1.0000 0.92810  0.13260  0.00000  Biso   1.000  B 
  B233     1.0000 0.88280  0.11720  0.00000  Biso   1.000  B 
  B234     1.0000 0.86740  0.07190  0.00000  Biso   1.000  B 
  B235     1.0000 0.84350  0.15650  0.00000  Biso   1.000  B 
  B236     1.0000 0.85530  0.20580  0.00000  Biso   1.000  B 
  B237     1.0000 0.79420  0.14470  0.00000  Biso   1.000  B 
  B238     1.0000 0.82050  0.24200  0.00000  Biso   1.000  B 
  B239     1.0000 0.88860  0.21490  0.00000  Biso   1.000  B 
  B240     1.0000 0.75800  0.17950  0.00000  Biso   1.000  B 
  B241     1.0000 0.78510  0.11140  0.00000  Biso   1.000  B 
  B242     1.0000 0.76930  0.23070  0.00000  Biso   1.000  B 
  B243     1.0000 0.73070  0.26930  0.00000  Biso   1.000  B 
  B244     1.0000 0.83050  0.27510  0.00000  Biso   1.000  B 
  B245     1.0000 0.74200  0.32050  0.00000  Biso   1.000  B 
  B246     1.0000 0.72490  0.16950  0.00000  Biso   1.000  B 
  B247     1.0000 0.67950  0.25800  0.00000  Biso   1.000  B 
  B248     1.0000 0.70580  0.35530  0.00000  Biso   1.000  B 
  N8       1.0000 0.79424  0.34143  0.00721  Biso   1.000  N 
  B249     1.0000 0.64470  0.29420  0.00000  Biso   1.000  B 
  B250     1.0000 0.66950  0.22490  0.00000  Biso   1.000  B 
  B251     1.0000 0.65650  0.34350  0.00000  Biso   1.000  B 
  B252     1.0000 0.61720  0.38280  0.00000  Biso   1.000  B 
  B253     1.0000 0.71490  0.38860  0.00000  Biso   1.000  B 
  B254     1.0000 0.61140  0.28510  0.00000  Biso   1.000  B 
  B255     1.0000 0.63260  0.42810  0.00000  Biso   1.000  B 
  B256     1.0000 0.57190  0.36740  0.00000  Biso   1.000  B 
  H85      1.0000 0.79967  0.37189  0.98354  Biso   1.000  H 
  C36      1.0000 0.80454  0.35605  0.05874  Biso   1.000  C 
  C37      1.0000 0.85999  0.36940  0.06393  Biso   1.000  C 
  C38      1.0000 0.87578  0.37035  0.11825  Biso   1.000  C 
  H86      1.0000 0.91359  0.38702  0.12018  Biso   1.000  H 
  C39      1.0000 0.87730  0.31825  0.14188  Biso   1.000  C 
  H87      1.0000 0.84959  0.39445  0.13941  Biso   1.000  H 
  H88      1.0000 0.79350  0.32484  0.08316  Biso   1.000  H 
  H89      1.0000 0.78200  0.38920  0.06897  Biso   1.000  H 
  H90      1.0000 0.86624  0.40708  0.04796  Biso   1.000  H 
  H91      1.0000 0.88322  0.34212  0.04323  Biso   1.000  H 
  H92      1.0000 0.90817  0.29678  0.12469  Biso   1.000  H 
  H93      1.0000 0.84244  0.29695  0.13705  Biso   1.000  H 
  C40      1.0000 0.88606  0.32248  0.19788  Biso   1.000  C 
  H94      1.0000 0.84961  0.32152  0.21738  Biso   1.000  H 
  H95      1.0000 0.90541  0.35767  0.20768  Biso   1.000  H 
  H96      1.0000 0.90889  0.29089  0.21087  Biso   1.000  H 
  B257     1.0000 0.00000  0.07190  0.13260  Biso   1.000  B 
  B258     1.0000 0.00000  0.11720  0.11720  Biso   1.000  B 
  B259     1.0000 0.00000  0.13260  0.07190  Biso   1.000  B 
  B260     1.0000 0.00000  0.15650  0.15650  Biso   1.000  B 
  B261     1.0000 0.00000  0.14470  0.20580  Biso   1.000  B 
  B262     1.0000 0.00000  0.20580  0.14470  Biso   1.000  B 
  B263     1.0000 0.00000  0.17950  0.24200  Biso   1.000  B 
  B264     1.0000 0.00000  0.11140  0.21490  Biso   1.000  B 
  B265     1.0000 0.00000  0.24200  0.17950  Biso   1.000  B 
  B266     1.0000 0.00000  0.21490  0.11140  Biso   1.000  B 
  B267     1.0000 0.00000  0.23070  0.23070  Biso   1.000  B 
  B268     1.0000 0.00000  0.26930  0.26930  Biso   1.000  B 
  B269     1.0000 0.00000  0.16950  0.27510  Biso   1.000  B 
  B270     1.0000 0.00000  0.25800  0.32050  Biso   1.000  B 
  B271     1.0000 0.00000  0.27510  0.16950  Biso   1.000  B 
  B272     1.0000 0.00000  0.32050  0.25800  Biso   1.000  B 
  B273     1.0000 0.00000  0.29420  0.35530  Biso   1.000  B 
  N9       1.0000 0.02678  0.21056  0.33805  Biso   1.000  N 
  B274     1.0000 0.00000  0.35530  0.29420  Biso   1.000  B 
  B275     1.0000 0.00000  0.33050  0.22490  Biso   1.000  B 
  B276     1.0000 0.00000  0.34350  0.34350  Biso   1.000  B 
  B277     1.0000 0.00000  0.38280  0.38280  Biso   1.000  B 
  B278     1.0000 0.00000  0.28510  0.38860  Biso   1.000  B 
  B279     1.0000 0.00000  0.38860  0.28510  Biso   1.000  B 
  B280     1.0000 0.00000  0.36740  0.42810  Biso   1.000  B 
  B281     1.0000 0.00000  0.42810  0.36740  Biso   1.000  B 
  H97      1.0000 0.06183  0.21649  0.32227  Biso   1.000  H 
  C41      1.0000 0.03491  0.20146  0.39140  Biso   1.000  C 
  C42      1.0000 0.07566  0.16231  0.39653  Biso   1.000  C 
  C43      1.0000 0.07531  0.13644  0.44643  Biso   1.000  C 
  H98      1.0000 0.11543  0.12902  0.45453  Biso   1.000  H 
  C44      1.0000 0.04899  0.08805  0.43974  Biso   1.000  C 
  H99      1.0000 0.05554  0.15686  0.47645  Biso   1.000  H 
  H100     1.0000 0.99913  0.19561  0.41141  Biso   1.000  H 
  H101     1.0000 0.05220  0.23496  0.40844  Biso   1.000  H 
  H102     1.0000 0.11245  0.18070  0.39031  Biso   1.000  H 
  H103     1.0000 0.06862  0.13632  0.36751  Biso   1.000  H 
  H104     1.0000 0.05390  0.06912  0.47631  Biso   1.000  H 
  H105     1.0000 0.06731  0.06403  0.41091  Biso   1.000  H 
  C45      1.0000 0.99285  0.09314  0.42962  Biso   1.000  C 
  H106     1.0000 0.97642  0.12609  0.44801  Biso   1.000  H 
  H107     1.0000 0.97398  0.06015  0.44081  Biso   1.000  H 
  H108     1.0000 0.99033  0.09778  0.38789  Biso   1.000  H 
  B282     1.0000 0.00000  0.07190  0.86740  Biso   1.000  B 
  B283     1.0000 0.00000  0.11720  0.88280  Biso   1.000  B 
  B284     1.0000 0.00000  0.13260  0.92810  Biso   1.000  B 
  B285     1.0000 0.00000  0.15650  0.84350  Biso   1.000  B 
  B286     1.0000 0.00000  0.14470  0.79420  Biso   1.000  B 
  B287     1.0000 0.00000  0.20580  0.85530  Biso   1.000  B 
  B288     1.0000 0.00000  0.17950  0.75800  Biso   1.000  B 
  B289     1.0000 0.00000  0.11140  0.78510  Biso   1.000  B 
  B290     1.0000 0.00000  0.24200  0.82050  Biso   1.000  B 
  B291     1.0000 0.00000  0.21490  0.88860  Biso   1.000  B 
  B292     1.0000 0.00000  0.23070  0.76930  Biso   1.000  B 
  B293     1.0000 0.00000  0.26930  0.73070  Biso   1.000  B 
  B294     1.0000 0.00000  0.16950  0.72490  Biso   1.000  B 
  B295     1.0000 0.00000  0.25800  0.67950  Biso   1.000  B 
  B296     1.0000 0.00000  0.27510  0.83050  Biso   1.000  B 
  B297     1.0000 0.00000  0.32050  0.74200  Biso   1.000  B 
  B298     1.0000 0.00000  0.29420  0.64470  Biso   1.000  B 
  N10      1.0000 0.97310  0.21043  0.66214  Biso   1.000  N 
  B299     1.0000 0.00000  0.35530  0.70580  Biso   1.000  B 
  B300     1.0000 0.00000  0.33050  0.77510  Biso   1.000  B 
  B301     1.0000 0.00000  0.34350  0.65650  Biso   1.000  B 
  B302     1.0000 0.00000  0.38280  0.61720  Biso   1.000  B 
  B303     1.0000 0.00000  0.28510  0.61140  Biso   1.000  B 
  B304     1.0000 0.00000  0.38860  0.71490  Biso   1.000  B 
  B305     1.0000 0.00000  0.36740  0.57190  Biso   1.000  B 
  B306     1.0000 0.00000  0.42810  0.63260  Biso   1.000  B 
  H109     1.0000 0.93820  0.21611  0.67845  Biso   1.000  H 
  C46      1.0000 0.96476  0.20122  0.60879  Biso   1.000  C 
  C47      1.0000 0.92465  0.16148  0.60386  Biso   1.000  C 
  C48      1.0000 0.92455  0.13634  0.55363  Biso   1.000  C 
  H110     1.0000 0.88439  0.12907  0.54560  Biso   1.000  H 
  C49      1.0000 0.95109  0.08794  0.55947  Biso   1.000  C 
  H111     1.0000 0.94416  0.15733  0.52390  Biso   1.000  H 
  H112     1.0000 0.00046  0.19630  0.58850  Biso   1.000  H 
  H113     1.0000 0.94681  0.23472  0.59239  Biso   1.000  H 
  H114     1.0000 0.88778  0.17919  0.61083  Biso   1.000  H 
  H115     1.0000 0.93291  0.13530  0.63249  Biso   1.000  H 
  H116     1.0000 0.94723  0.06996  0.52247  Biso   1.000  H 
  H117     1.0000 0.93210  0.06319  0.58728  Biso   1.000  H 
  C50      1.0000 0.00718  0.09285  0.57118  Biso   1.000  C 
  H118     1.0000 0.02384  0.12622  0.55422  Biso   1.000  H 
  H119     1.0000 0.02641  0.06015  0.55955  Biso   1.000  H 
  H120     1.0000 0.00861  0.09650  0.61309  Biso   1.000  H 
  B307     1.0000 0.00000  0.92810  0.86740  Biso   1.000  B 
  B308     1.0000 0.00000  0.88280  0.88280  Biso   1.000  B 
  B309     1.0000 0.00000  0.86740  0.92810  Biso   1.000  B 
  B310     1.0000 0.00000  0.84350  0.84350  Biso   1.000  B 
  B311     1.0000 0.00000  0.85530  0.79420  Biso   1.000  B 
  B312     1.0000 0.00000  0.79420  0.85530  Biso   1.000  B 
  B313     1.0000 0.00000  0.82050  0.75800  Biso   1.000  B 
  B314     1.0000 0.00000  0.88860  0.78510  Biso   1.000  B 
  B315     1.0000 0.00000  0.75800  0.82050  Biso   1.000  B 
  B316     1.0000 0.00000  0.78510  0.88860  Biso   1.000  B 
  B317     1.0000 0.00000  0.76930  0.76930  Biso   1.000  B 
  B318     1.0000 0.00000  0.73070  0.73070  Biso   1.000  B 
  B319     1.0000 0.00000  0.83050  0.72490  Biso   1.000  B 
  B320     1.0000 0.00000  0.74200  0.67950  Biso   1.000  B 
  B321     1.0000 0.00000  0.72490  0.83050  Biso   1.000  B 
  B322     1.0000 0.00000  0.67950  0.74200  Biso   1.000  B 
  B323     1.0000 0.00000  0.70580  0.64470  Biso   1.000  B 
  N11      1.0000 0.02686  0.78954  0.66209  Biso   1.000  N 
  B324     1.0000 0.00000  0.64470  0.70580  Biso   1.000  B 
  B325     1.0000 0.00000  0.66950  0.77510  Biso   1.000  B 
  B326     1.0000 0.00000  0.65650  0.65650  Biso   1.000  B 
  B327     1.0000 0.00000  0.61720  0.61720  Biso   1.000  B 
  B328     1.0000 0.00000  0.71490  0.61140  Biso   1.000  B 
  B329     1.0000 0.00000  0.61140  0.71490  Biso   1.000  B 
  B330     1.0000 0.00000  0.63260  0.57190  Biso   1.000  B 
  B331     1.0000 0.00000  0.57190  0.63260  Biso   1.000  B 
  H121     1.0000 0.06180  0.78381  0.67830  Biso   1.000  H 
  C51      1.0000 0.03513  0.79875  0.60875  Biso   1.000  C 
  C52      1.0000 0.07541  0.83832  0.60375  Biso   1.000  C 
  C53      1.0000 0.07541  0.86359  0.55360  Biso   1.000  C 
  H122     1.0000 0.11556  0.87094  0.54558  Biso   1.000  H 
  C54      1.0000 0.04886  0.91199  0.55963  Biso   1.000  C 
  H123     1.0000 0.05580  0.84271  0.52380  Biso   1.000  H 
  H124     1.0000 0.99940  0.80390  0.58854  Biso   1.000  H 
  H125     1.0000 0.05290  0.76524  0.59218  Biso   1.000  H 
  H126     1.0000 0.11225  0.82043  0.61056  Biso   1.000  H 
  H127     1.0000 0.06744  0.86449  0.63247  Biso   1.000  H 
  H128     1.0000 0.05292  0.93018  0.52272  Biso   1.000  H 
  H129     1.0000 0.06770  0.93660  0.58766  Biso   1.000  H 
  C55      1.0000 0.99278  0.90698  0.57106  Biso   1.000  C 
  H130     1.0000 0.97615  0.87384  0.55356  Biso   1.000  H 
  H131     1.0000 0.97366  0.93986  0.55975  Biso   1.000  H 
  H132     1.0000 0.99114  0.90281  0.61292  Biso   1.000  H 
  B332     1.0000 0.00000  0.92810  0.13260  Biso   1.000  B 
  B333     1.0000 0.00000  0.88280  0.11720  Biso   1.000  B 
  B334     1.0000 0.00000  0.86740  0.07190  Biso   1.000  B 
  B335     1.0000 0.00000  0.84350  0.15650  Biso   1.000  B 
  B336     1.0000 0.00000  0.85530  0.20580  Biso   1.000  B 
  B337     1.0000 0.00000  0.79420  0.14470  Biso   1.000  B 
  B338     1.0000 0.00000  0.82050  0.24200  Biso   1.000  B 
  B339     1.0000 0.00000  0.88860  0.21490  Biso   1.000  B 
  B340     1.0000 0.00000  0.75800  0.17950  Biso   1.000  B 
  B341     1.0000 0.00000  0.78510  0.11140  Biso   1.000  B 
  B342     1.0000 0.00000  0.76930  0.23070  Biso   1.000  B 
  B343     1.0000 0.00000  0.73070  0.26930  Biso   1.000  B 
  B344     1.0000 0.00000  0.83050  0.27510  Biso   1.000  B 
  B345     1.0000 0.00000  0.74200  0.32050  Biso   1.000  B 
  B346     1.0000 0.00000  0.72490  0.16950  Biso   1.000  B 
  B347     1.0000 0.00000  0.67950  0.25800  Biso   1.000  B 
  B348     1.0000 0.00000  0.70580  0.35530  Biso   1.000  B 
  N12      1.0000 0.97319  0.78946  0.33801  Biso   1.000  N 
  B349     1.0000 0.00000  0.64470  0.29420  Biso   1.000  B 
  B350     1.0000 0.00000  0.66950  0.22490  Biso   1.000  B 
  B351     1.0000 0.00000  0.65650  0.34350  Biso   1.000  B 
  B352     1.0000 0.00000  0.61720  0.38280  Biso   1.000  B 
  B353     1.0000 0.00000  0.71490  0.38860  Biso   1.000  B 
  B354     1.0000 0.00000  0.61140  0.28510  Biso   1.000  B 
  B355     1.0000 0.00000  0.63260  0.42810  Biso   1.000  B 
  B356     1.0000 0.00000  0.57190  0.36740  Biso   1.000  B 
  H133     1.0000 0.93817  0.78357  0.32212  Biso   1.000  H 
  C56      1.0000 0.96498  0.79857  0.39136  Biso   1.000  C 
  C57      1.0000 0.92441  0.83787  0.39643  Biso   1.000  C 
  C58      1.0000 0.92464  0.86360  0.44640  Biso   1.000  C 
  H134     1.0000 0.88450  0.87094  0.45451  Biso   1.000  H 
  C59      1.0000 0.95093  0.91201  0.43991  Biso   1.000  C 
  H135     1.0000 0.94442  0.84309  0.47634  Biso   1.000  H 
  H136     1.0000 0.00075  0.80419  0.41146  Biso   1.000  H 
  H137     1.0000 0.94753  0.76507  0.40823  Biso   1.000  H 
  H138     1.0000 0.88757  0.81965  0.39002  Biso   1.000  H 
  H139     1.0000 0.93174  0.86389  0.36750  Biso   1.000  H 
  H140     1.0000 0.94617  0.93075  0.47657  Biso   1.000  H 
  H141     1.0000 0.93247  0.93614  0.41128  Biso   1.000  H 
  C60      1.0000 0.00710  0.90701  0.42956  Biso   1.000  C 
  H142     1.0000 0.02356  0.87383  0.44743  Biso   1.000  H 
  H143     1.0000 0.02607  0.93983  0.44107  Biso   1.000  H 
  H144     1.0000 0.00943  0.90288  0.38776  Biso   1.000  H 
  B357     1.0000 0.13260  0.50000  0.57190  Biso   1.000  B 
  B358     1.0000 0.11720  0.50000  0.61720  Biso   1.000  B 
  B359     1.0000 0.07190  0.50000  0.63260  Biso   1.000  B 
  B360     1.0000 0.15650  0.50000  0.65650  Biso   1.000  B 
  B361     1.0000 0.20580  0.50000  0.64470  Biso   1.000  B 
  B362     1.0000 0.14470  0.50000  0.70580  Biso   1.000  B 
  B363     1.0000 0.24200  0.50000  0.67950  Biso   1.000  B 
  B364     1.0000 0.21490  0.50000  0.61140  Biso   1.000  B 
  B365     1.0000 0.17950  0.50000  0.74200  Biso   1.000  B 
  B366     1.0000 0.11140  0.50000  0.71490  Biso   1.000  B 
  B367     1.0000 0.23070  0.50000  0.73070  Biso   1.000  B 
  B368     1.0000 0.26930  0.50000  0.76930  Biso   1.000  B 
  B369     1.0000 0.27510  0.50000  0.66950  Biso   1.000  B 
  B370     1.0000 0.32050  0.50000  0.75800  Biso   1.000  B 
  B371     1.0000 0.16950  0.50000  0.77510  Biso   1.000  B 
  B372     1.0000 0.25800  0.50000  0.82050  Biso   1.000  B 
  B373     1.0000 0.35530  0.50000  0.79420  Biso   1.000  B 
  N13      1.0000 0.33936  0.48263  0.70752  Biso   1.000  N 
  B374     1.0000 0.29420  0.50000  0.85530  Biso   1.000  B 
  B375     1.0000 0.22490  0.50000  0.83050  Biso   1.000  B 
  B376     1.0000 0.34350  0.50000  0.84350  Biso   1.000  B 
  B377     1.0000 0.38280  0.50000  0.88280  Biso   1.000  B 
  B378     1.0000 0.38860  0.50000  0.78510  Biso   1.000  B 
  B379     1.0000 0.28510  0.50000  0.88860  Biso   1.000  B 
  B380     1.0000 0.42810  0.50000  0.86740  Biso   1.000  B 
  B381     1.0000 0.36740  0.50000  0.92810  Biso   1.000  B 
  H145     1.0000 0.36986  0.50466  0.69744  Biso   1.000  H 
  C61      1.0000 0.35417  0.42983  0.70972  Biso   1.000  C 
  C62      1.0000 0.34264  0.40319  0.66039  Biso   1.000  C 
  C63      1.0000 0.36766  0.35163  0.65805  Biso   1.000  C 
  H146     1.0000 0.37255  0.34157  0.61820  Biso   1.000  H 
  C64      1.0000 0.33682  0.31165  0.68497  Biso   1.000  C 
  H147     1.0000 0.40516  0.35344  0.67552  Biso   1.000  H 
  H148     1.0000 0.33409  0.40954  0.73978  Biso   1.000  H 
  H149     1.0000 0.39484  0.42753  0.71720  Biso   1.000  H 
  H150     1.0000 0.35819  0.42600  0.62968  Biso   1.000  H 
  H151     1.0000 0.30179  0.39967  0.65472  Biso   1.000  H 
  H152     1.0000 0.29620  0.31839  0.68090  Biso   1.000  H 
  H153     1.0000 0.34652  0.31155  0.72522  Biso   1.000  H 
  C65      1.0000 0.34753  0.26078  0.66247  Biso   1.000  C 
  H154     1.0000 0.38823  0.25681  0.65593  Biso   1.000  H 
  H155     1.0000 0.32710  0.25681  0.62677  Biso   1.000  H 
  H156     1.0000 0.33527  0.23107  0.68830  Biso   1.000  H 
  B382     1.0000 0.86740  0.50000  0.57190  Biso   1.000  B 
  B383     1.0000 0.88280  0.50000  0.61720  Biso   1.000  B 
  B384     1.0000 0.92810  0.50000  0.63260  Biso   1.000  B 
  B385     1.0000 0.84350  0.50000  0.65650  Biso   1.000  B 
  B386     1.0000 0.79420  0.50000  0.64470  Biso   1.000  B 
  B387     1.0000 0.85530  0.50000  0.70580  Biso   1.000  B 
  B388     1.0000 0.75800  0.50000  0.67950  Biso   1.000  B 
  B389     1.0000 0.78510  0.50000  0.61140  Biso   1.000  B 
  B390     1.0000 0.82050  0.50000  0.74200  Biso   1.000  B 
  B391     1.0000 0.88860  0.50000  0.71490  Biso   1.000  B 
  B392     1.0000 0.76930  0.50000  0.73070  Biso   1.000  B 
  B393     1.0000 0.73070  0.50000  0.76930  Biso   1.000  B 
  B394     1.0000 0.72490  0.50000  0.66950  Biso   1.000  B 
  B395     1.0000 0.67950  0.50000  0.75800  Biso   1.000  B 
  B396     1.0000 0.83050  0.50000  0.77510  Biso   1.000  B 
  B397     1.0000 0.74200  0.50000  0.82050  Biso   1.000  B 
  B398     1.0000 0.64470  0.50000  0.79420  Biso   1.000  B 
  N14      1.0000 0.66064  0.51737  0.70752  Biso   1.000  N 
  B399     1.0000 0.70580  0.50000  0.85530  Biso   1.000  B 
  B400     1.0000 0.77510  0.50000  0.83050  Biso   1.000  B 
  B401     1.0000 0.65650  0.50000  0.84350  Biso   1.000  B 
  B402     1.0000 0.61720  0.50000  0.88280  Biso   1.000  B 
  B403     1.0000 0.61140  0.50000  0.78510  Biso   1.000  B 
  B404     1.0000 0.71490  0.50000  0.88860  Biso   1.000  B 
  B405     1.0000 0.57190  0.50000  0.86740  Biso   1.000  B 
  B406     1.0000 0.63260  0.50000  0.92810  Biso   1.000  B 
  H157     1.0000 0.63014  0.49534  0.69744  Biso   1.000  H 
  C66      1.0000 0.64582  0.57017  0.70972  Biso   1.000  C 
  C67      1.0000 0.65737  0.59681  0.66039  Biso   1.000  C 
  C68      1.0000 0.63234  0.64837  0.65805  Biso   1.000  C 
  H158     1.0000 0.62745  0.65843  0.61820  Biso   1.000  H 
  C69      1.0000 0.66318  0.68835  0.68497  Biso   1.000  C 
  H159     1.0000 0.59484  0.64656  0.67552  Biso   1.000  H 
  H160     1.0000 0.66591  0.59046  0.73978  Biso   1.000  H 
  H161     1.0000 0.60516  0.57247  0.71720  Biso   1.000  H 
  H162     1.0000 0.64181  0.57400  0.62968  Biso   1.000  H 
  H163     1.0000 0.69821  0.60033  0.65472  Biso   1.000  H 
  H164     1.0000 0.70380  0.68161  0.68090  Biso   1.000  H 
  H165     1.0000 0.65348  0.68845  0.72522  Biso   1.000  H 
  C70      1.0000 0.65247  0.73922  0.66247  Biso   1.000  C 
  H166     1.0000 0.61177  0.74319  0.65593  Biso   1.000  H 
  H167     1.0000 0.67290  0.74319  0.62677  Biso   1.000  H 
  H168     1.0000 0.66473  0.76893  0.68830  Biso   1.000  H 
  B407     1.0000 0.86740  0.50000  0.42810  Biso   1.000  B 
  B408     1.0000 0.88280  0.50000  0.38280  Biso   1.000  B 
  B409     1.0000 0.92810  0.50000  0.36740  Biso   1.000  B 
  B410     1.0000 0.84350  0.50000  0.34350  Biso   1.000  B 
  B411     1.0000 0.79420  0.50000  0.35530  Biso   1.000  B 
  B412     1.0000 0.85530  0.50000  0.29420  Biso   1.000  B 
  B413     1.0000 0.75800  0.50000  0.32050  Biso   1.000  B 
  B414     1.0000 0.78510  0.50000  0.38860  Biso   1.000  B 
  B415     1.0000 0.82050  0.50000  0.25800  Biso   1.000  B 
  B416     1.0000 0.88860  0.50000  0.28510  Biso   1.000  B 
  B417     1.0000 0.76930  0.50000  0.26930  Biso   1.000  B 
  B418     1.0000 0.73070  0.50000  0.23070  Biso   1.000  B 
  B419     1.0000 0.72490  0.50000  0.33050  Biso   1.000  B 
  B420     1.0000 0.67950  0.50000  0.24200  Biso   1.000  B 
  B421     1.0000 0.83050  0.50000  0.22490  Biso   1.000  B 
  B422     1.0000 0.74200  0.50000  0.17950  Biso   1.000  B 
  B423     1.0000 0.64470  0.50000  0.20580  Biso   1.000  B 
  N15      1.0000 0.66064  0.48263  0.29248  Biso   1.000  N 
  B424     1.0000 0.70580  0.50000  0.14470  Biso   1.000  B 
  B425     1.0000 0.77510  0.50000  0.16950  Biso   1.000  B 
  B426     1.0000 0.65650  0.50000  0.15650  Biso   1.000  B 
  B427     1.0000 0.61720  0.50000  0.11720  Biso   1.000  B 
  B428     1.0000 0.61140  0.50000  0.21490  Biso   1.000  B 
  B429     1.0000 0.71490  0.50000  0.11140  Biso   1.000  B 
  B430     1.0000 0.57190  0.50000  0.13260  Biso   1.000  B 
  B431     1.0000 0.63260  0.50000  0.07190  Biso   1.000  B 
  H169     1.0000 0.63014  0.50466  0.30256  Biso   1.000  H 
  C71      1.0000 0.64582  0.42983  0.29028  Biso   1.000  C 
  C72      1.0000 0.65737  0.40319  0.33961  Biso   1.000  C 
  C73      1.0000 0.63234  0.35163  0.34195  Biso   1.000  C 
  H170     1.0000 0.62745  0.34157  0.38180  Biso   1.000  H 
  C74      1.0000 0.66318  0.31165  0.31503  Biso   1.000  C 
  H171     1.0000 0.59484  0.35344  0.32448  Biso   1.000  H 
  H172     1.0000 0.66591  0.40954  0.26022  Biso   1.000  H 
  H173     1.0000 0.60516  0.42753  0.28280  Biso   1.000  H 
  H174     1.0000 0.64181  0.42600  0.37032  Biso   1.000  H 
  H175     1.0000 0.69821  0.39967  0.34528  Biso   1.000  H 
  H176     1.0000 0.70380  0.31839  0.31911  Biso   1.000  H 
  H177     1.0000 0.65348  0.31155  0.27478  Biso   1.000  H 
  C75      1.0000 0.65247  0.26078  0.33753  Biso   1.000  C 
  H178     1.0000 0.61177  0.25681  0.34407  Biso   1.000  H 
  H179     1.0000 0.67290  0.25681  0.37323  Biso   1.000  H 
  H180     1.0000 0.66473  0.23107  0.31170  Biso   1.000  H 
  B432     1.0000 0.13260  0.50000  0.42810  Biso   1.000  B 
  B433     1.0000 0.11720  0.50000  0.38280  Biso   1.000  B 
  B434     1.0000 0.07190  0.50000  0.36740  Biso   1.000  B 
  B435     1.0000 0.15650  0.50000  0.34350  Biso   1.000  B 
  B436     1.0000 0.20580  0.50000  0.35530  Biso   1.000  B 
  B437     1.0000 0.14470  0.50000  0.29420  Biso   1.000  B 
  B438     1.0000 0.24200  0.50000  0.32050  Biso   1.000  B 
  B439     1.0000 0.21490  0.50000  0.38860  Biso   1.000  B 
  B440     1.0000 0.17950  0.50000  0.25800  Biso   1.000  B 
  B441     1.0000 0.11140  0.50000  0.28510  Biso   1.000  B 
  B442     1.0000 0.23070  0.50000  0.26930  Biso   1.000  B 
  B443     1.0000 0.26930  0.50000  0.23070  Biso   1.000  B 
  B444     1.0000 0.27510  0.50000  0.33050  Biso   1.000  B 
  B445     1.0000 0.32050  0.50000  0.24200  Biso   1.000  B 
  B446     1.0000 0.16950  0.50000  0.22490  Biso   1.000  B 
  B447     1.0000 0.25800  0.50000  0.17950  Biso   1.000  B 
  B448     1.0000 0.35530  0.50000  0.20580  Biso   1.000  B 
  N16      1.0000 0.33936  0.51737  0.29248  Biso   1.000  N 
  B449     1.0000 0.29420  0.50000  0.14470  Biso   1.000  B 
  B450     1.0000 0.22490  0.50000  0.16950  Biso   1.000  B 
  B451     1.0000 0.34350  0.50000  0.15650  Biso   1.000  B 
  B452     1.0000 0.38280  0.50000  0.11720  Biso   1.000  B 
  B453     1.0000 0.38860  0.50000  0.21490  Biso   1.000  B 
  B454     1.0000 0.28510  0.50000  0.11140  Biso   1.000  B 
  B455     1.0000 0.42810  0.50000  0.13260  Biso   1.000  B 
  B456     1.0000 0.36740  0.50000  0.07190  Biso   1.000  B 
  H181     1.0000 0.36986  0.49534  0.30256  Biso   1.000  H 
  C76      1.0000 0.35417  0.57017  0.29028  Biso   1.000  C 
  C77      1.0000 0.34264  0.59681  0.33961  Biso   1.000  C 
  C78      1.0000 0.36766  0.64837  0.34195  Biso   1.000  C 
  H182     1.0000 0.37255  0.65843  0.38180  Biso   1.000  H 
  C79      1.0000 0.33682  0.68835  0.31503  Biso   1.000  C 
  H183     1.0000 0.40516  0.64656  0.32448  Biso   1.000  H 
  H184     1.0000 0.33409  0.59046  0.26022  Biso   1.000  H 
  H185     1.0000 0.39484  0.57247  0.28280  Biso   1.000  H 
  H186     1.0000 0.35819  0.57400  0.37032  Biso   1.000  H 
  H187     1.0000 0.30179  0.60033  0.34528  Biso   1.000  H 
  H188     1.0000 0.29620  0.68161  0.31910  Biso   1.000  H 
  H189     1.0000 0.34652  0.68845  0.27478  Biso   1.000  H 
  C80      1.0000 0.34753  0.73922  0.33753  Biso   1.000  C 
  H190     1.0000 0.38823  0.74319  0.34407  Biso   1.000  H 
  H191     1.0000 0.32710  0.74319  0.37323  Biso   1.000  H 
  H192     1.0000 0.33527  0.76893  0.31170  Biso   1.000  H 
  B457     1.0000 0.07190  0.63260  0.50000  Biso   1.000  B 
  B458     1.0000 0.11720  0.61720  0.50000  Biso   1.000  B 
  B459     1.0000 0.13260  0.57190  0.50000  Biso   1.000  B 
  B460     1.0000 0.15650  0.65650  0.50000  Biso   1.000  B 
  B461     1.0000 0.14470  0.70580  0.50000  Biso   1.000  B 
  B462     1.0000 0.20580  0.64470  0.50000  Biso   1.000  B 
  B463     1.0000 0.17950  0.74200  0.50000  Biso   1.000  B 
  B464     1.0000 0.11140  0.71490  0.50000  Biso   1.000  B 
  B465     1.0000 0.24200  0.67950  0.50000  Biso   1.000  B 
  B466     1.0000 0.21490  0.61140  0.50000  Biso   1.000  B 
  B467     1.0000 0.23070  0.73070  0.50000  Biso   1.000  B 
  B468     1.0000 0.26930  0.76930  0.50000  Biso   1.000  B 
  B469     1.0000 0.16950  0.77510  0.50000  Biso   1.000  B 
  B470     1.0000 0.25800  0.82050  0.50000  Biso   1.000  B 
  B471     1.0000 0.27510  0.66950  0.50000  Biso   1.000  B 
  B472     1.0000 0.32050  0.75800  0.50000  Biso   1.000  B 
  B473     1.0000 0.29420  0.85530  0.50000  Biso   1.000  B 
  N17      1.0000 0.20605  0.83991  0.48376  Biso   1.000  N 
  B474     1.0000 0.35530  0.79420  0.50000  Biso   1.000  B 
  B475     1.0000 0.33050  0.72490  0.50000  Biso   1.000  B 
  B476     1.0000 0.34350  0.84350  0.50000  Biso   1.000  B 
  B477     1.0000 0.38280  0.88280  0.50000  Biso   1.000  B 
  B478     1.0000 0.28510  0.88860  0.50000  Biso   1.000  B 
  B479     1.0000 0.38860  0.78510  0.50000  Biso   1.000  B 
  B480     1.0000 0.36740  0.92810  0.50000  Biso   1.000  B 
  B481     1.0000 0.42810  0.86740  0.50000  Biso   1.000  B 
  H193     1.0000 0.19121  0.86266  0.51180  Biso   1.000  H 
  C81      1.0000 0.20274  0.86456  0.43466  Biso   1.000  C 
  C82      1.0000 0.14854  0.88607  0.42568  Biso   1.000  C 
  C83      1.0000 0.14110  0.91454  0.37620  Biso   1.000  C 
  H194     1.0000 0.17832  0.91704  0.35783  Biso   1.000  H 
  C84      1.0000 0.11980  0.96848  0.38239  Biso   1.000  C 
  H195     1.0000 0.11635  0.89254  0.35118  Biso   1.000  H 
  H196     1.0000 0.21286  0.83744  0.40517  Biso   1.000  H 
  H197     1.0000 0.22983  0.89571  0.43361  Biso   1.000  H 
  H198     1.0000 0.14103  0.91242  0.45657  Biso   1.000  H 
  H199     1.0000 0.11942  0.85709  0.42725  Biso   1.000  H 
  H200     1.0000 0.15271  0.99462  0.38370  Biso   1.000  H 
  H201     1.0000 0.09855  0.97333  0.41792  Biso   1.000  H 
  C85      1.0000 0.08286  0.98559  0.34063  Biso   1.000  C 
  H202     1.0000 0.07497  0.95799  0.31044  Biso   1.000  H 
  H203     1.0000 0.09591  0.02040  0.32351  Biso   1.000  H 
  H204     1.0000 0.04714  0.99582  0.35878  Biso   1.000  H 
  B482     1.0000 0.07190  0.36740  0.50000  Biso   1.000  B 
  B483     1.0000 0.11720  0.38280  0.50000  Biso   1.000  B 
  B484     1.0000 0.13260  0.42810  0.50000  Biso   1.000  B 
  B485     1.0000 0.15650  0.34350  0.50000  Biso   1.000  B 
  B486     1.0000 0.14470  0.29420  0.50000  Biso   1.000  B 
  B487     1.0000 0.20580  0.35530  0.50000  Biso   1.000  B 
  B488     1.0000 0.17950  0.25800  0.50000  Biso   1.000  B 
  B489     1.0000 0.11140  0.28510  0.50000  Biso   1.000  B 
  B490     1.0000 0.24200  0.32050  0.50000  Biso   1.000  B 
  B491     1.0000 0.21490  0.38860  0.50000  Biso   1.000  B 
  B492     1.0000 0.23070  0.26930  0.50000  Biso   1.000  B 
  B493     1.0000 0.26930  0.23070  0.50000  Biso   1.000  B 
  B494     1.0000 0.16950  0.22490  0.50000  Biso   1.000  B 
  B495     1.0000 0.25800  0.17950  0.50000  Biso   1.000  B 
  B496     1.0000 0.27510  0.33050  0.50000  Biso   1.000  B 
  B497     1.0000 0.32050  0.24200  0.50000  Biso   1.000  B 
  B498     1.0000 0.29420  0.14470  0.50000  Biso   1.000  B 
  N18      1.0000 0.20601  0.16003  0.51608  Biso   1.000  N 
  B499     1.0000 0.35530  0.20580  0.50000  Biso   1.000  B 
  B500     1.0000 0.33050  0.27510  0.50000  Biso   1.000  B 
  B501     1.0000 0.34350  0.15650  0.50000  Biso   1.000  B 
  B502     1.0000 0.38280  0.11720  0.50000  Biso   1.000  B 
  B503     1.0000 0.28510  0.11140  0.50000  Biso   1.000  B 
  B504     1.0000 0.38860  0.21490  0.50000  Biso   1.000  B 
  B505     1.0000 0.36740  0.07190  0.50000  Biso   1.000  B 
  B506     1.0000 0.42810  0.13260  0.50000  Biso   1.000  B 
  H205     1.0000 0.19132  0.13708  0.48810  Biso   1.000  H 
  C86      1.0000 0.20275  0.13550  0.56523  Biso   1.000  C 
  C87      1.0000 0.14841  0.11427  0.57462  Biso   1.000  C 
  C88      1.0000 0.14141  0.08559  0.62411  Biso   1.000  C 
  H206     1.0000 0.17879  0.08295  0.64210  Biso   1.000  H 
  C89      1.0000 0.12001  0.03173  0.61804  Biso   1.000  C 
  H207     1.0000 0.11697  0.10746  0.64950  Biso   1.000  H 
  H208     1.0000 0.21328  0.16262  0.59462  Biso   1.000  H 
  H209     1.0000 0.22972  0.10424  0.56618  Biso   1.000  H 
  H210     1.0000 0.14030  0.08825  0.54362  Biso   1.000  H 
  H211     1.0000 0.11946  0.14349  0.57369  Biso   1.000  H 
  H212     1.0000 0.15270  0.00529  0.61682  Biso   1.000  H 
  H213     1.0000 0.09886  0.02710  0.58247  Biso   1.000  H 
  C90      1.0000 0.08264  0.01482  0.65968  Biso   1.000  C 
  H214     1.0000 0.07502  0.04250  0.68990  Biso   1.000  H 
  H215     1.0000 0.09502  0.97964  0.67675  Biso   1.000  H 
  H216     1.0000 0.04677  0.00546  0.64132  Biso   1.000  H 
  B507     1.0000 0.92810  0.36740  0.50000  Biso   1.000  B 
  B508     1.0000 0.88280  0.38280  0.50000  Biso   1.000  B 
  B509     1.0000 0.86740  0.42810  0.50000  Biso   1.000  B 
  B510     1.0000 0.84350  0.34350  0.50000  Biso   1.000  B 
  B511     1.0000 0.85530  0.29420  0.50000  Biso   1.000  B 
  B512     1.0000 0.79420  0.35530  0.50000  Biso   1.000  B 
  B513     1.0000 0.82050  0.25800  0.50000  Biso   1.000  B 
  B514     1.0000 0.88860  0.28510  0.50000  Biso   1.000  B 
  B515     1.0000 0.75800  0.32050  0.50000  Biso   1.000  B 
  B516     1.0000 0.78510  0.38860  0.50000  Biso   1.000  B 
  B517     1.0000 0.76930  0.26930  0.50000  Biso   1.000  B 
  B518     1.0000 0.73070  0.23070  0.50000  Biso   1.000  B 
  B519     1.0000 0.83050  0.22490  0.50000  Biso   1.000  B 
  B520     1.0000 0.74200  0.17950  0.50000  Biso   1.000  B 
  B521     1.0000 0.72490  0.33050  0.50000  Biso   1.000  B 
  B522     1.0000 0.67950  0.24200  0.50000  Biso   1.000  B 
  B523     1.0000 0.70580  0.14470  0.50000  Biso   1.000  B 
  N19      1.0000 0.79394  0.16010  0.48373  Biso   1.000  N 
  B524     1.0000 0.64470  0.20580  0.50000  Biso   1.000  B 
  B525     1.0000 0.66950  0.27510  0.50000  Biso   1.000  B 
  B526     1.0000 0.65650  0.15650  0.50000  Biso   1.000  B 
  B527     1.0000 0.61720  0.11720  0.50000  Biso   1.000  B 
  B528     1.0000 0.71490  0.11140  0.50000  Biso   1.000  B 
  B529     1.0000 0.61140  0.21490  0.50000  Biso   1.000  B 
  B530     1.0000 0.63260  0.07190  0.50000  Biso   1.000  B 
  B531     1.0000 0.57190  0.13260  0.50000  Biso   1.000  B 
  H217     1.0000 0.80875  0.13729  0.51173  Biso   1.000  H 
  C91      1.0000 0.79721  0.13550  0.43460  Biso   1.000  C 
  C92      1.0000 0.85135  0.11382  0.42567  Biso   1.000  C 
  C93      1.0000 0.85884  0.08550  0.37610  Biso   1.000  C 
  H218     1.0000 0.82159  0.08290  0.35782  Biso   1.000  H 
  C94      1.0000 0.88030  0.03161  0.38218  Biso   1.000  C 
  H219     1.0000 0.88345  0.10766  0.35109  Biso   1.000  H 
  H220     1.0000 0.78723  0.16272  0.40515  Biso   1.000  H 
  H221     1.0000 0.77000  0.10446  0.43346  Biso   1.000  H 
  H222     1.0000 0.85862  0.08733  0.45650  Biso   1.000  H 
  H223     1.0000 0.88057  0.14268  0.42744  Biso   1.000  H 
  H224     1.0000 0.84748  0.00536  0.38351  Biso   1.000  H 
  H225     1.0000 0.90157  0.02679  0.41771  Biso   1.000  H 
  C95      1.0000 0.91731  0.01466  0.34039  Biso   1.000  C 
  H226     1.0000 0.92557  0.04253  0.31055  Biso   1.000  H 
  H227     1.0000 0.90404  0.98015  0.32283  Biso   1.000  H 
  H228     1.0000 0.95286  0.00385  0.35856  Biso   1.000  H 
  B532     1.0000 0.92810  0.63260  0.50000  Biso   1.000  B 
  B533     1.0000 0.88280  0.61720  0.50000  Biso   1.000  B 
  B534     1.0000 0.86740  0.57190  0.50000  Biso   1.000  B 
  B535     1.0000 0.84350  0.65650  0.50000  Biso   1.000  B 
  B536     1.0000 0.85530  0.70580  0.50000  Biso   1.000  B 
  B537     1.0000 0.79420  0.64470  0.50000  Biso   1.000  B 
  B538     1.0000 0.82050  0.74200  0.50000  Biso   1.000  B 
  B539     1.0000 0.88860  0.71490  0.50000  Biso   1.000  B 
  B540     1.0000 0.75800  0.67950  0.50000  Biso   1.000  B 
  B541     1.0000 0.78510  0.61140  0.50000  Biso   1.000  B 
  B542     1.0000 0.76930  0.73070  0.50000  Biso   1.000  B 
  B543     1.0000 0.73070  0.76930  0.50000  Biso   1.000  B 
  B544     1.0000 0.83050  0.77510  0.50000  Biso   1.000  B 
  B545     1.0000 0.74200  0.82050  0.50000  Biso   1.000  B 
  B546     1.0000 0.72490  0.66950  0.50000  Biso   1.000  B 
  B547     1.0000 0.67950  0.75800  0.50000  Biso   1.000  B 
  B548     1.0000 0.70580  0.85530  0.50000  Biso   1.000  B 
  N20      1.0000 0.79398  0.83995  0.51612  Biso   1.000  N 
  B549     1.0000 0.64470  0.79420  0.50000  Biso   1.000  B 
  B550     1.0000 0.66950  0.72490  0.50000  Biso   1.000  B 
  B551     1.0000 0.65650  0.84350  0.50000  Biso   1.000  B 
  B552     1.0000 0.61720  0.88280  0.50000  Biso   1.000  B 
  B553     1.0000 0.71490  0.88860  0.50000  Biso   1.000  B 
  B554     1.0000 0.61140  0.78510  0.50000  Biso   1.000  B 
  B555     1.0000 0.63260  0.92810  0.50000  Biso   1.000  B 
  B556     1.0000 0.57190  0.86740  0.50000  Biso   1.000  B 
  H229     1.0000 0.80864  0.86297  0.48818  Biso   1.000  H 
  C96      1.0000 0.79720  0.86444  0.56529  Biso   1.000  C 
  C97      1.0000 0.85149  0.88582  0.57464  Biso   1.000  C 
  C98      1.0000 0.85854  0.91435  0.62421  Biso   1.000  C 
  H230     1.0000 0.82114  0.91708  0.64213  Biso   1.000  H 
  C99      1.0000 0.88008  0.96817  0.61826  Biso   1.000  C 
  H231     1.0000 0.88285  0.89233  0.64959  Biso   1.000  H 
  H232     1.0000 0.78681  0.83723  0.59465  Biso   1.000  H 
  H233     1.0000 0.77013  0.89560  0.56633  Biso   1.000  H 
  H234     1.0000 0.85937  0.91199  0.54368  Biso   1.000  H 
  H235     1.0000 0.88054  0.85671  0.57349  Biso   1.000  H 
  H236     1.0000 0.84748  0.99472  0.61704  Biso   1.000  H 
  H237     1.0000 0.90125  0.97277  0.58268  Biso   1.000  H 
  C100     1.0000 0.91753  0.98492  0.65991  Biso   1.000  C 
  H238     1.0000 0.92556  0.95695  0.68978  Biso   1.000  H 
  H239     1.0000 0.90492  0.01978  0.67747  Biso   1.000  H 
  H240     1.0000 0.95322  0.99489  0.64153  Biso   1.000  H 
  B557     1.0000 0.50000  0.07190  0.63260  Biso   1.000  B 
  B558     1.0000 0.50000  0.11720  0.61720  Biso   1.000  B 
  B559     1.0000 0.50000  0.13260  0.57190  Biso   1.000  B 
  B560     1.0000 0.50000  0.15650  0.65650  Biso   1.000  B 
  B561     1.0000 0.50000  0.14470  0.70580  Biso   1.000  B 
  B562     1.0000 0.50000  0.20580  0.64470  Biso   1.000  B 
  B563     1.0000 0.50000  0.17950  0.74200  Biso   1.000  B 
  B564     1.0000 0.50000  0.11140  0.71490  Biso   1.000  B 
  B565     1.0000 0.50000  0.24200  0.67950  Biso   1.000  B 
  B566     1.0000 0.50000  0.21490  0.61140  Biso   1.000  B 
  B567     1.0000 0.50000  0.23070  0.73070  Biso   1.000  B 
  B568     1.0000 0.50000  0.26930  0.76930  Biso   1.000  B 
  B569     1.0000 0.50000  0.16950  0.77510  Biso   1.000  B 
  B570     1.0000 0.50000  0.25800  0.82050  Biso   1.000  B 
  B571     1.0000 0.50000  0.27510  0.66950  Biso   1.000  B 
  B572     1.0000 0.50000  0.32050  0.75800  Biso   1.000  B 
  B573     1.0000 0.50000  0.29420  0.85530  Biso   1.000  B 
  N21      1.0000 0.48770  0.20595  0.83973  Biso   1.000  N 
  B574     1.0000 0.50000  0.35530  0.79420  Biso   1.000  B 
  B575     1.0000 0.50000  0.33050  0.72490  Biso   1.000  B 
  B576     1.0000 0.50000  0.34350  0.84350  Biso   1.000  B 
  B577     1.0000 0.50000  0.38280  0.88280  Biso   1.000  B 
  B578     1.0000 0.50000  0.28510  0.88860  Biso   1.000  B 
  B579     1.0000 0.50000  0.38860  0.78510  Biso   1.000  B 
  B580     1.0000 0.50000  0.36740  0.92810  Biso   1.000  B 
  B581     1.0000 0.50000  0.42810  0.86740  Biso   1.000  B 
  H241     1.0000 0.51566  0.19306  0.86446  Biso   1.000  H 
  C101     1.0000 0.43722  0.20158  0.86009  Biso   1.000  C 
  C102     1.0000 0.43820  0.20507  0.91791  Biso   1.000  C 
  C103     1.0000 0.40934  0.16319  0.94239  Biso   1.000  C 
  H242     1.0000 0.36899  0.17187  0.93739  Biso   1.000  H 
  C104     1.0000 0.42130  0.15683  0.99782  Biso   1.000  C 
  H243     1.0000 0.41854  0.12714  0.92643  Biso   1.000  H 
  H244     1.0000 0.42249  0.16412  0.84984  Biso   1.000  H 
  H245     1.0000 0.41305  0.22940  0.84004  Biso   1.000  H 
  H246     1.0000 0.42285  0.24108  0.92866  Biso   1.000  H 
  H247     1.0000 0.47670  0.20273  0.93317  Biso   1.000  H 
  H248     1.0000 0.41894  0.19486  0.01244  Biso   1.000  H 
  H249     1.0000 0.45985  0.14223  0.00283  Biso   1.000  H 
  C105     1.0000 0.38689  0.12087  0.02464  Biso   1.000  C 
  H250     1.0000 0.34780  0.13289  0.02402  Biso   1.000  H 
  H251     1.0000 0.40058  0.12121  0.06331  Biso   1.000  H 
  H252     1.0000 0.39028  0.08239  0.00958  Biso   1.000  H 
  B582     1.0000 0.50000  0.07190  0.36740  Biso   1.000  B 
  B583     1.0000 0.50000  0.11720  0.38280  Biso   1.000  B 
  B584     1.0000 0.50000  0.13260  0.42810  Biso   1.000  B 
  B585     1.0000 0.50000  0.15650  0.34350  Biso   1.000  B 
  B586     1.0000 0.50000  0.14470  0.29420  Biso   1.000  B 
  B587     1.0000 0.50000  0.20580  0.35530  Biso   1.000  B 
  B588     1.0000 0.50000  0.17950  0.25800  Biso   1.000  B 
  B589     1.0000 0.50000  0.11140  0.28510  Biso   1.000  B 
  B590     1.0000 0.50000  0.24200  0.32050  Biso   1.000  B 
  B591     1.0000 0.50000  0.21490  0.38860  Biso   1.000  B 
  B592     1.0000 0.50000  0.23070  0.26930  Biso   1.000  B 
  B593     1.0000 0.50000  0.26930  0.23070  Biso   1.000  B 
  B594     1.0000 0.50000  0.16950  0.22490  Biso   1.000  B 
  B595     1.0000 0.50000  0.25800  0.17950  Biso   1.000  B 
  B596     1.0000 0.50000  0.27510  0.33050  Biso   1.000  B 
  B597     1.0000 0.50000  0.32050  0.24200  Biso   1.000  B 
  B598     1.0000 0.50000  0.29420  0.14470  Biso   1.000  B 
  N22      1.0000 0.51230  0.20595  0.16027  Biso   1.000  N 
  B599     1.0000 0.50000  0.35530  0.20580  Biso   1.000  B 
  B600     1.0000 0.50000  0.33050  0.27510  Biso   1.000  B 
  B601     1.0000 0.50000  0.34350  0.15650  Biso   1.000  B 
  B602     1.0000 0.50000  0.38280  0.11720  Biso   1.000  B 
  B603     1.0000 0.50000  0.28510  0.11140  Biso   1.000  B 
  B604     1.0000 0.50000  0.38860  0.21490  Biso   1.000  B 
  B605     1.0000 0.50000  0.36740  0.07190  Biso   1.000  B 
  B606     1.0000 0.50000  0.42810  0.13260  Biso   1.000  B 
  H253     1.0000 0.48434  0.19306  0.13555  Biso   1.000  H 
  C106     1.0000 0.56278  0.20158  0.13991  Biso   1.000  C 
  C107     1.0000 0.56181  0.20507  0.08210  Biso   1.000  C 
  C108     1.0000 0.59066  0.16320  0.05761  Biso   1.000  C 
  H254     1.0000 0.63101  0.17188  0.06261  Biso   1.000  H 
  C109     1.0000 0.57870  0.15683  0.00218  Biso   1.000  C 
  H255     1.0000 0.58147  0.12714  0.07357  Biso   1.000  H 
  H256     1.0000 0.57752  0.16412  0.15016  Biso   1.000  H 
  H257     1.0000 0.58695  0.22940  0.15996  Biso   1.000  H 
  H258     1.0000 0.57715  0.24108  0.07134  Biso   1.000  H 
  H259     1.0000 0.52330  0.20274  0.06683  Biso   1.000  H 
  H260     1.0000 0.58107  0.19487  0.98756  Biso   1.000  H 
  H261     1.0000 0.54015  0.14224  0.99717  Biso   1.000  H 
  C110     1.0000 0.61311  0.12088  0.97536  Biso   1.000  C 
  H262     1.0000 0.65220  0.13289  0.97599  Biso   1.000  H 
  H263     1.0000 0.59943  0.12123  0.93669  Biso   1.000  H 
  H264     1.0000 0.60971  0.08239  0.99040  Biso   1.000  H 
  B607     1.0000 0.50000  0.92810  0.36740  Biso   1.000  B 
  B608     1.0000 0.50000  0.88280  0.38280  Biso   1.000  B 
  B609     1.0000 0.50000  0.86740  0.42810  Biso   1.000  B 
  B610     1.0000 0.50000  0.84350  0.34350  Biso   1.000  B 
  B611     1.0000 0.50000  0.85530  0.29420  Biso   1.000  B 
  B612     1.0000 0.50000  0.79420  0.35530  Biso   1.000  B 
  B613     1.0000 0.50000  0.82050  0.25800  Biso   1.000  B 
  B614     1.0000 0.50000  0.88860  0.28510  Biso   1.000  B 
  B615     1.0000 0.50000  0.75800  0.32050  Biso   1.000  B 
  B616     1.0000 0.50000  0.78510  0.38860  Biso   1.000  B 
  B617     1.0000 0.50000  0.76930  0.26930  Biso   1.000  B 
  B618     1.0000 0.50000  0.73070  0.23070  Biso   1.000  B 
  B619     1.0000 0.50000  0.83050  0.22490  Biso   1.000  B 
  B620     1.0000 0.50000  0.74200  0.17950  Biso   1.000  B 
  B621     1.0000 0.50000  0.72490  0.33050  Biso   1.000  B 
  B622     1.0000 0.50000  0.67950  0.24200  Biso   1.000  B 
  B623     1.0000 0.50000  0.70580  0.14470  Biso   1.000  B 
  N23      1.0000 0.48770  0.79405  0.16027  Biso   1.000  N 
  B624     1.0000 0.50000  0.64470  0.20580  Biso   1.000  B 
  B625     1.0000 0.50000  0.66950  0.27510  Biso   1.000  B 
  B626     1.0000 0.50000  0.65650  0.15650  Biso   1.000  B 
  B627     1.0000 0.50000  0.61720  0.11720  Biso   1.000  B 
  B628     1.0000 0.50000  0.71490  0.11140  Biso   1.000  B 
  B629     1.0000 0.50000  0.61140  0.21490  Biso   1.000  B 
  B630     1.0000 0.50000  0.63260  0.07190  Biso   1.000  B 
  B631     1.0000 0.50000  0.57190  0.13260  Biso   1.000  B 
  H265     1.0000 0.51566  0.80694  0.13555  Biso   1.000  H 
  C111     1.0000 0.43722  0.79842  0.13991  Biso   1.000  C 
  C112     1.0000 0.43820  0.79493  0.08209  Biso   1.000  C 
  C113     1.0000 0.40934  0.83681  0.05761  Biso   1.000  C 
  H266     1.0000 0.36899  0.82813  0.06261  Biso   1.000  H 
  C114     1.0000 0.42130  0.84317  0.00218  Biso   1.000  C 
  H267     1.0000 0.41854  0.87287  0.07357  Biso   1.000  H 
  H268     1.0000 0.42249  0.83588  0.15016  Biso   1.000  H 
  H269     1.0000 0.41305  0.77061  0.15996  Biso   1.000  H 
  H270     1.0000 0.42285  0.75892  0.07134  Biso   1.000  H 
  H271     1.0000 0.47671  0.79727  0.06683  Biso   1.000  H 
  H272     1.0000 0.41895  0.80514  0.98756  Biso   1.000  H 
  H273     1.0000 0.45985  0.85778  0.99717  Biso   1.000  H 
  C115     1.0000 0.38689  0.87913  0.97536  Biso   1.000  C 
  H274     1.0000 0.34780  0.86711  0.97597  Biso   1.000  H 
  H275     1.0000 0.40058  0.87880  0.93669  Biso   1.000  H 
  H276     1.0000 0.39027  0.91761  0.99042  Biso   1.000  H 
  B632     1.0000 0.50000  0.92810  0.63260  Biso   1.000  B 
  B633     1.0000 0.50000  0.88280  0.61720  Biso   1.000  B 
  B634     1.0000 0.50000  0.86740  0.57190  Biso   1.000  B 
  B635     1.0000 0.50000  0.84350  0.65650  Biso   1.000  B 
  B636     1.0000 0.50000  0.85530  0.70580  Biso   1.000  B 
  B637     1.0000 0.50000  0.79420  0.64470  Biso   1.000  B 
  B638     1.0000 0.50000  0.82050  0.74200  Biso   1.000  B 
  B639     1.0000 0.50000  0.88860  0.71490  Biso   1.000  B 
  B640     1.0000 0.50000  0.75800  0.67950  Biso   1.000  B 
  B641     1.0000 0.50000  0.78510  0.61140  Biso   1.000  B 
  B642     1.0000 0.50000  0.76930  0.73070  Biso   1.000  B 
  B643     1.0000 0.50000  0.73070  0.76930  Biso   1.000  B 
  B644     1.0000 0.50000  0.83050  0.77510  Biso   1.000  B 
  B645     1.0000 0.50000  0.74200  0.82050  Biso   1.000  B 
  B646     1.0000 0.50000  0.72490  0.66950  Biso   1.000  B 
  B647     1.0000 0.50000  0.67950  0.75800  Biso   1.000  B 
  B648     1.0000 0.50000  0.70580  0.85530  Biso   1.000  B 
  N24      1.0000 0.51230  0.79405  0.83973  Biso   1.000  N 
  B649     1.0000 0.50000  0.64470  0.79420  Biso   1.000  B 
  B650     1.0000 0.50000  0.66950  0.72490  Biso   1.000  B 
  B651     1.0000 0.50000  0.65650  0.84350  Biso   1.000  B 
  B652     1.0000 0.50000  0.61720  0.88280  Biso   1.000  B 
  B653     1.0000 0.50000  0.71490  0.88860  Biso   1.000  B 
  B654     1.0000 0.50000  0.61140  0.78510  Biso   1.000  B 
  B655     1.0000 0.50000  0.63260  0.92810  Biso   1.000  B 
  B656     1.0000 0.50000  0.57190  0.86740  Biso   1.000  B 
  H277     1.0000 0.48434  0.80694  0.86446  Biso   1.000  H 
  C116     1.0000 0.56278  0.79842  0.86009  Biso   1.000  C 
  C117     1.0000 0.56180  0.79493  0.91791  Biso   1.000  C 
  C118     1.0000 0.59066  0.83680  0.94239  Biso   1.000  C 
  H278     1.0000 0.63101  0.82813  0.93738  Biso   1.000  H 
  C119     1.0000 0.57870  0.84317  0.99782  Biso   1.000  C 
  H279     1.0000 0.58147  0.87286  0.92643  Biso   1.000  H 
  H280     1.0000 0.57752  0.83588  0.84984  Biso   1.000  H 
  H281     1.0000 0.58695  0.77060  0.84004  Biso   1.000  H 
  H282     1.0000 0.57715  0.75892  0.92866  Biso   1.000  H 
  H283     1.0000 0.52330  0.79726  0.93317  Biso   1.000  H 
  H284     1.0000 0.58106  0.80513  0.01244  Biso   1.000  H 
  H285     1.0000 0.54015  0.85777  0.00283  Biso   1.000  H 
  C120     1.0000 0.61311  0.87912  0.02464  Biso   1.000  C 
  H286     1.0000 0.65220  0.86711  0.02402  Biso   1.000  H 
  H287     1.0000 0.59942  0.87878  0.06331  Biso   1.000  H 
  H288     1.0000 0.60972  0.91761  0.00959  Biso   1.000  H 
