data_image0
_cell_length_a       26.896
_cell_length_b       26.896
_cell_length_c       26.896
_cell_angle_alpha    90
_cell_angle_beta     90
_cell_angle_gamma    90

_symmetry_space_group_name_H-M    "P 1"
_symmetry_int_tables_number       1

loop_
  _symmetry_equiv_pos_as_xyz
  'x, y, z'

loop_
  _atom_site_label
  _atom_site_occupancy
  _atom_site_fract_x
  _atom_site_fract_y
  _atom_site_fract_z
  _atom_site_thermal_displace_type
  _atom_site_B_iso_or_equiv
  _atom_site_type_symbol
  B1       1.0000 0.09204  0.00000  0.00000  Biso   1.000  B 
  B2       1.0000 0.90796  0.00000  0.00000  Biso   1.000  B 
  B3       1.0000 0.00000  0.09204  0.00000  Biso   1.000  B 
  B4       1.0000 0.00000  0.90796  0.00000  Biso   1.000  B 
  B5       1.0000 0.00000  0.00000  0.09204  Biso   1.000  B 
  B6       1.0000 0.00000  0.00000  0.90796  Biso   1.000  B 
  B7       1.0000 0.09204  0.50000  0.50000  Biso   1.000  B 
  B8       1.0000 0.90796  0.50000  0.50000  Biso   1.000  B 
  B9       1.0000 0.00000  0.59204  0.50000  Biso   1.000  B 
  B10      1.0000 0.00000  0.40796  0.50000  Biso   1.000  B 
  B11      1.0000 0.00000  0.50000  0.59204  Biso   1.000  B 
  B12      1.0000 0.00000  0.50000  0.40796  Biso   1.000  B 
  B13      1.0000 0.59204  0.00000  0.50000  Biso   1.000  B 
  B14      1.0000 0.40796  0.00000  0.50000  Biso   1.000  B 
  B15      1.0000 0.50000  0.09204  0.50000  Biso   1.000  B 
  B16      1.0000 0.50000  0.90796  0.50000  Biso   1.000  B 
  B17      1.0000 0.50000  0.00000  0.59204  Biso   1.000  B 
  B18      1.0000 0.50000  0.00000  0.40796  Biso   1.000  B 
  B19      1.0000 0.59204  0.50000  0.00000  Biso   1.000  B 
  B20      1.0000 0.40796  0.50000  0.00000  Biso   1.000  B 
  B21      1.0000 0.50000  0.59204  0.00000  Biso   1.000  B 
  B22      1.0000 0.50000  0.40796  0.00000  Biso   1.000  B 
  B23      1.0000 0.50000  0.50000  0.09204  Biso   1.000  B 
  B24      1.0000 0.50000  0.50000  0.90796  Biso   1.000  B 
  B25      1.0000 0.04540  0.04540  0.04540  Biso   1.000  B 
  B26      1.0000 0.95460  0.95460  0.04540  Biso   1.000  B 
  B27      1.0000 0.95460  0.04540  0.95460  Biso   1.000  B 
  B28      1.0000 0.04540  0.95460  0.95460  Biso   1.000  B 
  B29      1.0000 0.04540  0.04540  0.95460  Biso   1.000  B 
  B30      1.0000 0.95460  0.95460  0.95460  Biso   1.000  B 
  B31      1.0000 0.04540  0.95460  0.04540  Biso   1.000  B 
  B32      1.0000 0.95460  0.04540  0.04540  Biso   1.000  B 
  B33      1.0000 0.04540  0.54540  0.54540  Biso   1.000  B 
  B34      1.0000 0.95460  0.45460  0.54540  Biso   1.000  B 
  B35      1.0000 0.95460  0.54540  0.45460  Biso   1.000  B 
  B36      1.0000 0.04540  0.45460  0.45460  Biso   1.000  B 
  B37      1.0000 0.04540  0.54540  0.45460  Biso   1.000  B 
  B38      1.0000 0.95460  0.45460  0.45460  Biso   1.000  B 
  B39      1.0000 0.04540  0.45460  0.54540  Biso   1.000  B 
  B40      1.0000 0.95460  0.54540  0.54540  Biso   1.000  B 
  B41      1.0000 0.54540  0.04540  0.54540  Biso   1.000  B 
  B42      1.0000 0.45460  0.95460  0.54540  Biso   1.000  B 
  B43      1.0000 0.45460  0.04540  0.45460  Biso   1.000  B 
  B44      1.0000 0.54540  0.95460  0.45460  Biso   1.000  B 
  B45      1.0000 0.54540  0.04540  0.45460  Biso   1.000  B 
  B46      1.0000 0.45460  0.95460  0.45460  Biso   1.000  B 
  B47      1.0000 0.54540  0.95460  0.54540  Biso   1.000  B 
  B48      1.0000 0.45460  0.04540  0.54540  Biso   1.000  B 
  B49      1.0000 0.54540  0.54540  0.04540  Biso   1.000  B 
  B50      1.0000 0.45460  0.45460  0.04540  Biso   1.000  B 
  B51      1.0000 0.45460  0.54540  0.95460  Biso   1.000  B 
  B52      1.0000 0.54540  0.45460  0.95460  Biso   1.000  B 
  B53      1.0000 0.54540  0.54540  0.95460  Biso   1.000  B 
  B54      1.0000 0.45460  0.45460  0.95460  Biso   1.000  B 
  B55      1.0000 0.54540  0.45460  0.04540  Biso   1.000  B 
  B56      1.0000 0.45460  0.54540  0.04540  Biso   1.000  B 
  B57      1.0000 0.13260  0.00000  0.07190  Biso   1.000  B 
  B58      1.0000 0.11720  0.00000  0.11720  Biso   1.000  B 
  B59      1.0000 0.07190  0.00000  0.13260  Biso   1.000  B 
  B60      1.0000 0.15650  0.00000  0.15650  Biso   1.000  B 
  B61      1.0000 0.20580  0.00000  0.14470  Biso   1.000  B 
  B62      1.0000 0.14470  0.00000  0.20580  Biso   1.000  B 
  B63      1.0000 0.24200  0.00000  0.17950  Biso   1.000  B 
  B64      1.0000 0.21490  0.00000  0.11140  Biso   1.000  B 
  B65      1.0000 0.17950  0.00000  0.24200  Biso   1.000  B 
  B66      1.0000 0.11140  0.00000  0.21490  Biso   1.000  B 
  B67      1.0000 0.23070  0.00000  0.23070  Biso   1.000  B 
  B68      1.0000 0.26930  0.00000  0.26930  Biso   1.000  B 
  B69      1.0000 0.27510  0.00000  0.16950  Biso   1.000  B 
  B70      1.0000 0.32050  0.00000  0.25800  Biso   1.000  B 
  N1       1.0000 0.15798  0.00591  0.29411  Biso   1.000  N 
  B71      1.0000 0.25800  0.00000  0.32050  Biso   1.000  B 
  B72      1.0000 0.35530  0.00000  0.29420  Biso   1.000  B 
  N2       1.0000 0.34262  0.00178  0.20422  Biso   1.000  N 
  B73      1.0000 0.29420  0.00000  0.35530  Biso   1.000  B 
  B74      1.0000 0.22490  0.00000  0.33050  Biso   1.000  B 
  B75      1.0000 0.34350  0.00000  0.34350  Biso   1.000  B 
  B76      1.0000 0.38280  0.00000  0.38280  Biso   1.000  B 
  B77      1.0000 0.38860  0.00000  0.28510  Biso   1.000  B 
  B78      1.0000 0.28510  0.00000  0.38860  Biso   1.000  B 
  B79      1.0000 0.42810  0.00000  0.36740  Biso   1.000  B 
  B80      1.0000 0.36740  0.00000  0.42810  Biso   1.000  B 
  C1       1.0000 0.36143  0.04951  0.18815  Biso   1.000  C 
  C2       1.0000 0.37626  0.96099  0.18791  Biso   1.000  C 
  C3       1.0000 0.14300  0.05525  0.30920  Biso   1.000  C 
  C4       1.0000 0.12647  0.96650  0.31575  Biso   1.000  C 
  H1       1.0000 0.35968  0.94171  0.15516  Biso   1.000  H 
  H2       1.0000 0.38392  0.93547  0.21795  Biso   1.000  H 
  C5       1.0000 0.42683  0.98559  0.17389  Biso   1.000  C 
  H3       1.0000 0.34545  0.06115  0.15289  Biso   1.000  H 
  C6       1.0000 0.41897  0.04096  0.18457  Biso   1.000  C 
  H4       1.0000 0.35541  0.08013  0.21622  Biso   1.000  H 
  H5       1.0000 0.43583  0.05056  0.22140  Biso   1.000  H 
  H6       1.0000 0.43576  0.06427  0.15477  Biso   1.000  H 
  H7       1.0000 0.43517  0.97973  0.13338  Biso   1.000  H 
  H8       1.0000 0.46129  0.97137  0.19525  Biso   1.000  H 
  H9       1.0000 0.14838  0.93609  0.33101  Biso   1.000  H 
  H10      1.0000 0.09916  0.95098  0.29043  Biso   1.000  H 
  C7       1.0000 0.09947  0.99318  0.35859  Biso   1.000  C 
  H11      1.0000 0.12271  0.99319  0.39337  Biso   1.000  H 
  H12      1.0000 0.06149  0.97718  0.36780  Biso   1.000  H 
  C8       1.0000 0.09603  0.04885  0.34291  Biso   1.000  C 
  H13      1.0000 0.13582  0.07646  0.27706  Biso   1.000  H 
  H14      1.0000 0.17443  0.07263  0.32913  Biso   1.000  H 
  H15      1.0000 0.09903  0.07492  0.37541  Biso   1.000  H 
  H16      1.0000 0.06179  0.05912  0.32184  Biso   1.000  H 
  B81      1.0000 0.86740  0.00000  0.07190  Biso   1.000  B 
  B82      1.0000 0.88280  0.00000  0.11720  Biso   1.000  B 
  B83      1.0000 0.92810  0.00000  0.13260  Biso   1.000  B 
  B84      1.0000 0.84350  0.00000  0.15650  Biso   1.000  B 
  B85      1.0000 0.79420  0.00000  0.14470  Biso   1.000  B 
  B86      1.0000 0.85530  0.00000  0.20580  Biso   1.000  B 
  B87      1.0000 0.75800  0.00000  0.17950  Biso   1.000  B 
  B88      1.0000 0.78510  0.00000  0.11140  Biso   1.000  B 
  B89      1.0000 0.82050  0.00000  0.24200  Biso   1.000  B 
  B90      1.0000 0.88860  0.00000  0.21490  Biso   1.000  B 
  B91      1.0000 0.76930  0.00000  0.23070  Biso   1.000  B 
  B92      1.0000 0.73070  0.00000  0.26930  Biso   1.000  B 
  B93      1.0000 0.72490  0.00000  0.16950  Biso   1.000  B 
  B94      1.0000 0.67950  0.00000  0.25800  Biso   1.000  B 
  N3       1.0000 0.84202  0.99408  0.29411  Biso   1.000  N 
  B95      1.0000 0.74200  0.00000  0.32050  Biso   1.000  B 
  B96      1.0000 0.64470  0.00000  0.29420  Biso   1.000  B 
  N4       1.0000 0.65738  0.99822  0.20422  Biso   1.000  N 
  B97      1.0000 0.70580  0.00000  0.35530  Biso   1.000  B 
  B98      1.0000 0.77510  0.00000  0.33050  Biso   1.000  B 
  B99      1.0000 0.65650  0.00000  0.34350  Biso   1.000  B 
  B100     1.0000 0.61720  0.00000  0.38280  Biso   1.000  B 
  B101     1.0000 0.61140  0.00000  0.28510  Biso   1.000  B 
  B102     1.0000 0.71490  0.00000  0.38860  Biso   1.000  B 
  B103     1.0000 0.57190  0.00000  0.36740  Biso   1.000  B 
  B104     1.0000 0.63260  0.00000  0.42810  Biso   1.000  B 
  C9       1.0000 0.63857  0.95049  0.18815  Biso   1.000  C 
  C10      1.0000 0.62374  0.03901  0.18791  Biso   1.000  C 
  C11      1.0000 0.85700  0.94475  0.30920  Biso   1.000  C 
  C12      1.0000 0.87353  0.03349  0.31575  Biso   1.000  C 
  H17      1.0000 0.64032  0.05829  0.15516  Biso   1.000  H 
  H18      1.0000 0.61608  0.06453  0.21795  Biso   1.000  H 
  C13      1.0000 0.57317  0.01441  0.17389  Biso   1.000  C 
  H19      1.0000 0.65455  0.93885  0.15289  Biso   1.000  H 
  C14      1.0000 0.58103  0.95904  0.18457  Biso   1.000  C 
  H20      1.0000 0.64459  0.91987  0.21622  Biso   1.000  H 
  H21      1.0000 0.56417  0.94944  0.22140  Biso   1.000  H 
  H22      1.0000 0.56424  0.93573  0.15477  Biso   1.000  H 
  H23      1.0000 0.56483  0.02027  0.13338  Biso   1.000  H 
  H24      1.0000 0.53871  0.02863  0.19525  Biso   1.000  H 
  H25      1.0000 0.85162  0.06391  0.33101  Biso   1.000  H 
  H26      1.0000 0.90084  0.04902  0.29043  Biso   1.000  H 
  C15      1.0000 0.90053  0.00682  0.35859  Biso   1.000  C 
  H27      1.0000 0.87729  0.00681  0.39337  Biso   1.000  H 
  H28      1.0000 0.93851  0.02282  0.36780  Biso   1.000  H 
  C16      1.0000 0.90397  0.95115  0.34291  Biso   1.000  C 
  H29      1.0000 0.86418  0.92354  0.27706  Biso   1.000  H 
  H30      1.0000 0.82557  0.92737  0.32913  Biso   1.000  H 
  H31      1.0000 0.90097  0.92508  0.37541  Biso   1.000  H 
  H32      1.0000 0.93821  0.94088  0.32184  Biso   1.000  H 
  B105     1.0000 0.86740  0.00000  0.92810  Biso   1.000  B 
  B106     1.0000 0.88280  0.00000  0.88280  Biso   1.000  B 
  B107     1.0000 0.92810  0.00000  0.86740  Biso   1.000  B 
  B108     1.0000 0.84350  0.00000  0.84350  Biso   1.000  B 
  B109     1.0000 0.79420  0.00000  0.85530  Biso   1.000  B 
  B110     1.0000 0.85530  0.00000  0.79420  Biso   1.000  B 
  B111     1.0000 0.75800  0.00000  0.82050  Biso   1.000  B 
  B112     1.0000 0.78510  0.00000  0.88860  Biso   1.000  B 
  B113     1.0000 0.82050  0.00000  0.75800  Biso   1.000  B 
  B114     1.0000 0.88860  0.00000  0.78510  Biso   1.000  B 
  B115     1.0000 0.76930  0.00000  0.76930  Biso   1.000  B 
  B116     1.0000 0.73070  0.00000  0.73070  Biso   1.000  B 
  B117     1.0000 0.72490  0.00000  0.83050  Biso   1.000  B 
  B118     1.0000 0.67950  0.00000  0.74200  Biso   1.000  B 
  N5       1.0000 0.84202  0.00591  0.70589  Biso   1.000  N 
  B119     1.0000 0.74200  0.00000  0.67950  Biso   1.000  B 
  B120     1.0000 0.64470  0.00000  0.70580  Biso   1.000  B 
  N6       1.0000 0.65738  0.00178  0.79578  Biso   1.000  N 
  B121     1.0000 0.70580  0.00000  0.64470  Biso   1.000  B 
  B122     1.0000 0.77510  0.00000  0.66950  Biso   1.000  B 
  B123     1.0000 0.65650  0.00000  0.65650  Biso   1.000  B 
  B124     1.0000 0.61720  0.00000  0.61720  Biso   1.000  B 
  B125     1.0000 0.61140  0.00000  0.71490  Biso   1.000  B 
  B126     1.0000 0.71490  0.00000  0.61140  Biso   1.000  B 
  B127     1.0000 0.57190  0.00000  0.63260  Biso   1.000  B 
  B128     1.0000 0.63260  0.00000  0.57190  Biso   1.000  B 
  C17      1.0000 0.63857  0.04951  0.81185  Biso   1.000  C 
  C18      1.0000 0.62374  0.96099  0.81209  Biso   1.000  C 
  C19      1.0000 0.85700  0.05525  0.69080  Biso   1.000  C 
  C20      1.0000 0.87353  0.96650  0.68425  Biso   1.000  C 
  H33      1.0000 0.64032  0.94171  0.84484  Biso   1.000  H 
  H34      1.0000 0.61608  0.93547  0.78205  Biso   1.000  H 
  C21      1.0000 0.57317  0.98559  0.82611  Biso   1.000  C 
  H35      1.0000 0.65455  0.06115  0.84711  Biso   1.000  H 
  C22      1.0000 0.58103  0.04096  0.81543  Biso   1.000  C 
  H36      1.0000 0.64459  0.08013  0.78377  Biso   1.000  H 
  H37      1.0000 0.56417  0.05056  0.77860  Biso   1.000  H 
  H38      1.0000 0.56424  0.06427  0.84523  Biso   1.000  H 
  H39      1.0000 0.56483  0.97973  0.86662  Biso   1.000  H 
  H40      1.0000 0.53871  0.97137  0.80475  Biso   1.000  H 
  H41      1.0000 0.85162  0.93609  0.66899  Biso   1.000  H 
  H42      1.0000 0.90084  0.95098  0.70957  Biso   1.000  H 
  C23      1.0000 0.90053  0.99318  0.64141  Biso   1.000  C 
  H43      1.0000 0.87729  0.99319  0.60663  Biso   1.000  H 
  H44      1.0000 0.93851  0.97718  0.63219  Biso   1.000  H 
  C24      1.0000 0.90397  0.04885  0.65709  Biso   1.000  C 
  H45      1.0000 0.86418  0.07646  0.72294  Biso   1.000  H 
  H46      1.0000 0.82557  0.07263  0.67087  Biso   1.000  H 
  H47      1.0000 0.90097  0.07492  0.62459  Biso   1.000  H 
  H48      1.0000 0.93821  0.05912  0.67816  Biso   1.000  H 
  B129     1.0000 0.13260  0.00000  0.92810  Biso   1.000  B 
  B130     1.0000 0.11720  0.00000  0.88280  Biso   1.000  B 
  B131     1.0000 0.07190  0.00000  0.86740  Biso   1.000  B 
  B132     1.0000 0.15650  0.00000  0.84350  Biso   1.000  B 
  B133     1.0000 0.20580  0.00000  0.85530  Biso   1.000  B 
  B134     1.0000 0.14470  0.00000  0.79420  Biso   1.000  B 
  B135     1.0000 0.24200  0.00000  0.82050  Biso   1.000  B 
  B136     1.0000 0.21490  0.00000  0.88860  Biso   1.000  B 
  B137     1.0000 0.17950  0.00000  0.75800  Biso   1.000  B 
  B138     1.0000 0.11140  0.00000  0.78510  Biso   1.000  B 
  B139     1.0000 0.23070  0.00000  0.76930  Biso   1.000  B 
  B140     1.0000 0.26930  0.00000  0.73070  Biso   1.000  B 
  B141     1.0000 0.27510  0.00000  0.83050  Biso   1.000  B 
  B142     1.0000 0.32050  0.00000  0.74200  Biso   1.000  B 
  N7       1.0000 0.15798  0.99408  0.70589  Biso   1.000  N 
  B143     1.0000 0.25800  0.00000  0.67950  Biso   1.000  B 
  B144     1.0000 0.35530  0.00000  0.70580  Biso   1.000  B 
  N8       1.0000 0.34262  0.99822  0.79578  Biso   1.000  N 
  B145     1.0000 0.29420  0.00000  0.64470  Biso   1.000  B 
  B146     1.0000 0.22490  0.00000  0.66950  Biso   1.000  B 
  B147     1.0000 0.34350  0.00000  0.65650  Biso   1.000  B 
  B148     1.0000 0.38280  0.00000  0.61720  Biso   1.000  B 
  B149     1.0000 0.38860  0.00000  0.71490  Biso   1.000  B 
  B150     1.0000 0.28510  0.00000  0.61140  Biso   1.000  B 
  B151     1.0000 0.42810  0.00000  0.63260  Biso   1.000  B 
  B152     1.0000 0.36740  0.00000  0.57190  Biso   1.000  B 
  C25      1.0000 0.36143  0.95049  0.81185  Biso   1.000  C 
  C26      1.0000 0.37626  0.03901  0.81209  Biso   1.000  C 
  C27      1.0000 0.14300  0.94475  0.69080  Biso   1.000  C 
  C28      1.0000 0.12647  0.03349  0.68425  Biso   1.000  C 
  H49      1.0000 0.35968  0.05829  0.84484  Biso   1.000  H 
  H50      1.0000 0.38392  0.06453  0.78205  Biso   1.000  H 
  C29      1.0000 0.42683  0.01441  0.82611  Biso   1.000  C 
  H51      1.0000 0.34545  0.93885  0.84711  Biso   1.000  H 
  C30      1.0000 0.41897  0.95904  0.81543  Biso   1.000  C 
  H52      1.0000 0.35541  0.91987  0.78377  Biso   1.000  H 
  H53      1.0000 0.43583  0.94944  0.77860  Biso   1.000  H 
  H54      1.0000 0.43576  0.93573  0.84523  Biso   1.000  H 
  H55      1.0000 0.43517  0.02027  0.86662  Biso   1.000  H 
  H56      1.0000 0.46129  0.02863  0.80475  Biso   1.000  H 
  H57      1.0000 0.14838  0.06391  0.66899  Biso   1.000  H 
  H58      1.0000 0.09916  0.04902  0.70957  Biso   1.000  H 
  C31      1.0000 0.09947  0.00682  0.64141  Biso   1.000  C 
  H59      1.0000 0.12271  0.00681  0.60663  Biso   1.000  H 
  H60      1.0000 0.06149  0.02282  0.63219  Biso   1.000  H 
  C32      1.0000 0.09603  0.95115  0.65709  Biso   1.000  C 
  H61      1.0000 0.13582  0.92354  0.72294  Biso   1.000  H 
  H62      1.0000 0.17443  0.92737  0.67087  Biso   1.000  H 
  H63      1.0000 0.09903  0.92508  0.62459  Biso   1.000  H 
  H64      1.0000 0.06179  0.94088  0.67816  Biso   1.000  H 
  B153     1.0000 0.07190  0.13260  0.00000  Biso   1.000  B 
  B154     1.0000 0.11720  0.11720  0.00000  Biso   1.000  B 
  B155     1.0000 0.13260  0.07190  0.00000  Biso   1.000  B 
  B156     1.0000 0.15650  0.15650  0.00000  Biso   1.000  B 
  B157     1.0000 0.14470  0.20580  0.00000  Biso   1.000  B 
  B158     1.0000 0.20580  0.14470  0.00000  Biso   1.000  B 
  B159     1.0000 0.17950  0.24200  0.00000  Biso   1.000  B 
  B160     1.0000 0.11140  0.21490  0.00000  Biso   1.000  B 
  B161     1.0000 0.24200  0.17950  0.00000  Biso   1.000  B 
  B162     1.0000 0.21490  0.11140  0.00000  Biso   1.000  B 
  B163     1.0000 0.23070  0.23070  0.00000  Biso   1.000  B 
  B164     1.0000 0.26930  0.26930  0.00000  Biso   1.000  B 
  B165     1.0000 0.16950  0.27510  0.00000  Biso   1.000  B 
  B166     1.0000 0.25800  0.32050  0.00000  Biso   1.000  B 
  N9       1.0000 0.29408  0.15820  0.00598  Biso   1.000  N 
  B167     1.0000 0.32050  0.25800  0.00000  Biso   1.000  B 
  B168     1.0000 0.29420  0.35530  0.00000  Biso   1.000  B 
  N10      1.0000 0.20732  0.34103  0.01707  Biso   1.000  N 
  B169     1.0000 0.35530  0.29420  0.00000  Biso   1.000  B 
  B170     1.0000 0.33050  0.22490  0.00000  Biso   1.000  B 
  B171     1.0000 0.34350  0.34350  0.00000  Biso   1.000  B 
  B172     1.0000 0.38280  0.38280  0.00000  Biso   1.000  B 
  B173     1.0000 0.28510  0.38860  0.00000  Biso   1.000  B 
  B174     1.0000 0.38860  0.28510  0.00000  Biso   1.000  B 
  B175     1.0000 0.36740  0.42810  0.00000  Biso   1.000  B 
  B176     1.0000 0.42810  0.36740  0.00000  Biso   1.000  B 
  C33      1.0000 0.19859  0.35375  0.06883  Biso   1.000  C 
  C34      1.0000 0.18540  0.37752  0.98382  Biso   1.000  C 
  C35      1.0000 0.30861  0.14273  0.05519  Biso   1.000  C 
  C36      1.0000 0.31549  0.12717  0.96622  Biso   1.000  C 
  H65      1.0000 0.15429  0.36172  0.96302  Biso   1.000  H 
  H66      1.0000 0.21270  0.39406  0.95981  Biso   1.000  H 
  C37      1.0000 0.16742  0.41938  0.01530  Biso   1.000  C 
  H67      1.0000 0.16585  0.33177  0.07929  Biso   1.000  H 
  C38      1.0000 0.18678  0.40975  0.06738  Biso   1.000  C 
  H68      1.0000 0.23120  0.34838  0.09405  Biso   1.000  H 
  H69      1.0000 0.22203  0.43327  0.07517  Biso   1.000  H 
  H70      1.0000 0.15908  0.42256  0.09391  Biso   1.000  H 
  H71      1.0000 0.12581  0.42135  0.01438  Biso   1.000  H 
  H72      1.0000 0.18303  0.45647  0.00019  Biso   1.000  H 
  H73      1.0000 0.33256  0.15026  0.93736  Biso   1.000  H 
  H74      1.0000 0.28928  0.10228  0.94825  Biso   1.000  H 
  C39      1.0000 0.35523  0.09575  0.99237  Biso   1.000  C 
  H75      1.0000 0.39277  0.11391  0.98963  Biso   1.000  H 
  H76      1.0000 0.35824  0.05617  0.97766  Biso   1.000  H 
  C40      1.0000 0.34200  0.09569  0.04893  Biso   1.000  C 
  H77      1.0000 0.27634  0.13558  0.07614  Biso   1.000  H 
  H78      1.0000 0.32857  0.17387  0.07294  Biso   1.000  H 
  H79      1.0000 0.37593  0.10042  0.07312  Biso   1.000  H 
  H80      1.0000 0.32198  0.06182  0.06259  Biso   1.000  H 
  B177     1.0000 0.07190  0.86740  0.00000  Biso   1.000  B 
  B178     1.0000 0.11720  0.88280  0.00000  Biso   1.000  B 
  B179     1.0000 0.13260  0.92810  0.00000  Biso   1.000  B 
  B180     1.0000 0.15650  0.84350  0.00000  Biso   1.000  B 
  B181     1.0000 0.14470  0.79420  0.00000  Biso   1.000  B 
  B182     1.0000 0.20580  0.85530  0.00000  Biso   1.000  B 
  B183     1.0000 0.17950  0.75800  0.00000  Biso   1.000  B 
  B184     1.0000 0.11140  0.78510  0.00000  Biso   1.000  B 
  B185     1.0000 0.24200  0.82050  0.00000  Biso   1.000  B 
  B186     1.0000 0.21490  0.88860  0.00000  Biso   1.000  B 
  B187     1.0000 0.23070  0.76930  0.00000  Biso   1.000  B 
  B188     1.0000 0.26930  0.73070  0.00000  Biso   1.000  B 
  B189     1.0000 0.16950  0.72490  0.00000  Biso   1.000  B 
  B190     1.0000 0.25800  0.67950  0.00000  Biso   1.000  B 
  N11      1.0000 0.29408  0.84179  0.99403  Biso   1.000  N 
  B191     1.0000 0.32050  0.74200  0.00000  Biso   1.000  B 
  B192     1.0000 0.29420  0.64470  0.00000  Biso   1.000  B 
  N12      1.0000 0.20732  0.65898  0.98293  Biso   1.000  N 
  B193     1.0000 0.35530  0.70580  0.00000  Biso   1.000  B 
  B194     1.0000 0.33050  0.77510  0.00000  Biso   1.000  B 
  B195     1.0000 0.34350  0.65650  0.00000  Biso   1.000  B 
  B196     1.0000 0.38280  0.61720  0.00000  Biso   1.000  B 
  B197     1.0000 0.28510  0.61140  0.00000  Biso   1.000  B 
  B198     1.0000 0.38860  0.71490  0.00000  Biso   1.000  B 
  B199     1.0000 0.36740  0.57190  0.00000  Biso   1.000  B 
  B200     1.0000 0.42810  0.63260  0.00000  Biso   1.000  B 
  C41      1.0000 0.19859  0.64625  0.93117  Biso   1.000  C 
  C42      1.0000 0.18540  0.62248  0.01618  Biso   1.000  C 
  C43      1.0000 0.30861  0.85727  0.94481  Biso   1.000  C 
  C44      1.0000 0.31549  0.87283  0.03378  Biso   1.000  C 
  H81      1.0000 0.15429  0.63828  0.03698  Biso   1.000  H 
  H82      1.0000 0.21270  0.60594  0.04019  Biso   1.000  H 
  C45      1.0000 0.16742  0.58062  0.98470  Biso   1.000  C 
  H83      1.0000 0.16585  0.66823  0.92071  Biso   1.000  H 
  C46      1.0000 0.18678  0.59025  0.93262  Biso   1.000  C 
  H84      1.0000 0.23120  0.65162  0.90595  Biso   1.000  H 
  H85      1.0000 0.22203  0.56673  0.92484  Biso   1.000  H 
  H86      1.0000 0.15908  0.57744  0.90609  Biso   1.000  H 
  H87      1.0000 0.12581  0.57865  0.98563  Biso   1.000  H 
  H88      1.0000 0.18303  0.54353  0.99981  Biso   1.000  H 
  H89      1.0000 0.33256  0.84974  0.06264  Biso   1.000  H 
  H90      1.0000 0.28928  0.89772  0.05175  Biso   1.000  H 
  C47      1.0000 0.35523  0.90425  0.00763  Biso   1.000  C 
  H91      1.0000 0.39277  0.88609  0.01037  Biso   1.000  H 
  H92      1.0000 0.35824  0.94383  0.02234  Biso   1.000  H 
  C48      1.0000 0.34200  0.90431  0.95107  Biso   1.000  C 
  H93      1.0000 0.27634  0.86442  0.92386  Biso   1.000  H 
  H94      1.0000 0.32857  0.82613  0.92706  Biso   1.000  H 
  H95      1.0000 0.37593  0.89958  0.92688  Biso   1.000  H 
  H96      1.0000 0.32198  0.93818  0.93741  Biso   1.000  H 
  B201     1.0000 0.92810  0.86740  0.00000  Biso   1.000  B 
  B202     1.0000 0.88280  0.88280  0.00000  Biso   1.000  B 
  B203     1.0000 0.86740  0.92810  0.00000  Biso   1.000  B 
  B204     1.0000 0.84350  0.84350  0.00000  Biso   1.000  B 
  B205     1.0000 0.85530  0.79420  0.00000  Biso   1.000  B 
  B206     1.0000 0.79420  0.85530  0.00000  Biso   1.000  B 
  B207     1.0000 0.82050  0.75800  0.00000  Biso   1.000  B 
  B208     1.0000 0.88860  0.78510  0.00000  Biso   1.000  B 
  B209     1.0000 0.75800  0.82050  0.00000  Biso   1.000  B 
  B210     1.0000 0.78510  0.88860  0.00000  Biso   1.000  B 
  B211     1.0000 0.76930  0.76930  0.00000  Biso   1.000  B 
  B212     1.0000 0.73070  0.73070  0.00000  Biso   1.000  B 
  B213     1.0000 0.83050  0.72490  0.00000  Biso   1.000  B 
  B214     1.0000 0.74200  0.67950  0.00000  Biso   1.000  B 
  N13      1.0000 0.70592  0.84179  0.00598  Biso   1.000  N 
  B215     1.0000 0.67950  0.74200  0.00000  Biso   1.000  B 
  B216     1.0000 0.70580  0.64470  0.00000  Biso   1.000  B 
  N14      1.0000 0.79268  0.65898  0.01707  Biso   1.000  N 
  B217     1.0000 0.64470  0.70580  0.00000  Biso   1.000  B 
  B218     1.0000 0.66950  0.77510  0.00000  Biso   1.000  B 
  B219     1.0000 0.65650  0.65650  0.00000  Biso   1.000  B 
  B220     1.0000 0.61720  0.61720  0.00000  Biso   1.000  B 
  B221     1.0000 0.71490  0.61140  0.00000  Biso   1.000  B 
  B222     1.0000 0.61140  0.71490  0.00000  Biso   1.000  B 
  B223     1.0000 0.63260  0.57190  0.00000  Biso   1.000  B 
  B224     1.0000 0.57190  0.63260  0.00000  Biso   1.000  B 
  C49      1.0000 0.80141  0.64625  0.06883  Biso   1.000  C 
  C50      1.0000 0.81460  0.62248  0.98382  Biso   1.000  C 
  C51      1.0000 0.69139  0.85727  0.05519  Biso   1.000  C 
  C52      1.0000 0.68451  0.87283  0.96622  Biso   1.000  C 
  H97      1.0000 0.84571  0.63828  0.96302  Biso   1.000  H 
  H98      1.0000 0.78730  0.60594  0.95981  Biso   1.000  H 
  C53      1.0000 0.83258  0.58062  0.01530  Biso   1.000  C 
  H99      1.0000 0.83415  0.66823  0.07929  Biso   1.000  H 
  C54      1.0000 0.81322  0.59025  0.06738  Biso   1.000  C 
  H100     1.0000 0.76880  0.65162  0.09405  Biso   1.000  H 
  H101     1.0000 0.77797  0.56673  0.07517  Biso   1.000  H 
  H102     1.0000 0.84092  0.57744  0.09391  Biso   1.000  H 
  H103     1.0000 0.87419  0.57865  0.01438  Biso   1.000  H 
  H104     1.0000 0.81697  0.54353  0.00019  Biso   1.000  H 
  H105     1.0000 0.66744  0.84974  0.93736  Biso   1.000  H 
  H106     1.0000 0.71072  0.89772  0.94825  Biso   1.000  H 
  C55      1.0000 0.64477  0.90425  0.99237  Biso   1.000  C 
  H107     1.0000 0.60723  0.88609  0.98963  Biso   1.000  H 
  H108     1.0000 0.64176  0.94383  0.97766  Biso   1.000  H 
  C56      1.0000 0.65800  0.90431  0.04893  Biso   1.000  C 
  H109     1.0000 0.72366  0.86442  0.07614  Biso   1.000  H 
  H110     1.0000 0.67143  0.82613  0.07294  Biso   1.000  H 
  H111     1.0000 0.62407  0.89958  0.07312  Biso   1.000  H 
  H112     1.0000 0.67802  0.93818  0.06259  Biso   1.000  H 
  B225     1.0000 0.92810  0.13260  0.00000  Biso   1.000  B 
  B226     1.0000 0.88280  0.11720  0.00000  Biso   1.000  B 
  B227     1.0000 0.86740  0.07190  0.00000  Biso   1.000  B 
  B228     1.0000 0.84350  0.15650  0.00000  Biso   1.000  B 
  B229     1.0000 0.85530  0.20580  0.00000  Biso   1.000  B 
  B230     1.0000 0.79420  0.14470  0.00000  Biso   1.000  B 
  B231     1.0000 0.82050  0.24200  0.00000  Biso   1.000  B 
  B232     1.0000 0.88860  0.21490  0.00000  Biso   1.000  B 
  B233     1.0000 0.75800  0.17950  0.00000  Biso   1.000  B 
  B234     1.0000 0.78510  0.11140  0.00000  Biso   1.000  B 
  B235     1.0000 0.76930  0.23070  0.00000  Biso   1.000  B 
  B236     1.0000 0.73070  0.26930  0.00000  Biso   1.000  B 
  B237     1.0000 0.83050  0.27510  0.00000  Biso   1.000  B 
  B238     1.0000 0.74200  0.32050  0.00000  Biso   1.000  B 
  N15      1.0000 0.70592  0.15820  0.99403  Biso   1.000  N 
  B239     1.0000 0.67950  0.25800  0.00000  Biso   1.000  B 
  B240     1.0000 0.70580  0.35530  0.00000  Biso   1.000  B 
  N16      1.0000 0.79268  0.34103  0.98293  Biso   1.000  N 
  B241     1.0000 0.64470  0.29420  0.00000  Biso   1.000  B 
  B242     1.0000 0.66950  0.22490  0.00000  Biso   1.000  B 
  B243     1.0000 0.65650  0.34350  0.00000  Biso   1.000  B 
  B244     1.0000 0.61720  0.38280  0.00000  Biso   1.000  B 
  B245     1.0000 0.71490  0.38860  0.00000  Biso   1.000  B 
  B246     1.0000 0.61140  0.28510  0.00000  Biso   1.000  B 
  B247     1.0000 0.63260  0.42810  0.00000  Biso   1.000  B 
  B248     1.0000 0.57190  0.36740  0.00000  Biso   1.000  B 
  C57      1.0000 0.80141  0.35375  0.93117  Biso   1.000  C 
  C58      1.0000 0.81460  0.37752  0.01618  Biso   1.000  C 
  C59      1.0000 0.69139  0.14273  0.94481  Biso   1.000  C 
  C60      1.0000 0.68451  0.12717  0.03378  Biso   1.000  C 
  H113     1.0000 0.84571  0.36172  0.03698  Biso   1.000  H 
  H114     1.0000 0.78730  0.39406  0.04019  Biso   1.000  H 
  C61      1.0000 0.83258  0.41938  0.98470  Biso   1.000  C 
  H115     1.0000 0.83415  0.33177  0.92071  Biso   1.000  H 
  C62      1.0000 0.81322  0.40975  0.93262  Biso   1.000  C 
  H116     1.0000 0.76880  0.34838  0.90595  Biso   1.000  H 
  H117     1.0000 0.77797  0.43327  0.92484  Biso   1.000  H 
  H118     1.0000 0.84092  0.42256  0.90609  Biso   1.000  H 
  H119     1.0000 0.87419  0.42135  0.98563  Biso   1.000  H 
  H120     1.0000 0.81697  0.45647  0.99981  Biso   1.000  H 
  H121     1.0000 0.66744  0.15026  0.06264  Biso   1.000  H 
  H122     1.0000 0.71072  0.10228  0.05175  Biso   1.000  H 
  C63      1.0000 0.64477  0.09575  0.00763  Biso   1.000  C 
  H123     1.0000 0.60723  0.11391  0.01037  Biso   1.000  H 
  H124     1.0000 0.64176  0.05617  0.02234  Biso   1.000  H 
  C64      1.0000 0.65800  0.09569  0.95107  Biso   1.000  C 
  H125     1.0000 0.72366  0.13558  0.92386  Biso   1.000  H 
  H126     1.0000 0.67143  0.17387  0.92706  Biso   1.000  H 
  H127     1.0000 0.62407  0.10042  0.92688  Biso   1.000  H 
  H128     1.0000 0.67802  0.06182  0.93741  Biso   1.000  H 
  B249     1.0000 0.00000  0.07190  0.13260  Biso   1.000  B 
  B250     1.0000 0.00000  0.11720  0.11720  Biso   1.000  B 
  B251     1.0000 0.00000  0.13260  0.07190  Biso   1.000  B 
  B252     1.0000 0.00000  0.15650  0.15650  Biso   1.000  B 
  B253     1.0000 0.00000  0.14470  0.20580  Biso   1.000  B 
  B254     1.0000 0.00000  0.20580  0.14470  Biso   1.000  B 
  B255     1.0000 0.00000  0.17950  0.24200  Biso   1.000  B 
  B256     1.0000 0.00000  0.11140  0.21490  Biso   1.000  B 
  B257     1.0000 0.00000  0.24200  0.17950  Biso   1.000  B 
  B258     1.0000 0.00000  0.21490  0.11140  Biso   1.000  B 
  B259     1.0000 0.00000  0.23070  0.23070  Biso   1.000  B 
  B260     1.0000 0.00000  0.26930  0.26930  Biso   1.000  B 
  B261     1.0000 0.00000  0.16950  0.27510  Biso   1.000  B 
  B262     1.0000 0.00000  0.25800  0.32050  Biso   1.000  B 
  N17      1.0000 0.98138  0.29296  0.15853  Biso   1.000  N 
  B263     1.0000 0.00000  0.32050  0.25800  Biso   1.000  B 
  B264     1.0000 0.00000  0.29420  0.35530  Biso   1.000  B 
  N18      1.0000 0.00038  0.20424  0.34269  Biso   1.000  N 
  B265     1.0000 0.00000  0.35530  0.29420  Biso   1.000  B 
  B266     1.0000 0.00000  0.33050  0.22490  Biso   1.000  B 
  B267     1.0000 0.00000  0.34350  0.34350  Biso   1.000  B 
  B268     1.0000 0.00000  0.38280  0.38280  Biso   1.000  B 
  B269     1.0000 0.00000  0.28510  0.38860  Biso   1.000  B 
  B270     1.0000 0.00000  0.38860  0.28510  Biso   1.000  B 
  B271     1.0000 0.00000  0.36740  0.42810  Biso   1.000  B 
  B272     1.0000 0.00000  0.42810  0.36740  Biso   1.000  B 
  C65      1.0000 0.04750  0.18713  0.36219  Biso   1.000  C 
  C66      1.0000 0.95878  0.18887  0.37578  Biso   1.000  C 
  C67      1.0000 0.01326  0.32410  0.12621  Biso   1.000  C 
  C68      1.0000 0.92825  0.30150  0.15094  Biso   1.000  C 
  H129     1.0000 0.93863  0.15690  0.35873  Biso   1.000  H 
  H130     1.0000 0.93421  0.21962  0.38350  Biso   1.000  H 
  C69      1.0000 0.98229  0.17372  0.42646  Biso   1.000  C 
  H131     1.0000 0.05908  0.15188  0.34613  Biso   1.000  H 
  C70      1.0000 0.03813  0.18339  0.41955  Biso   1.000  C 
  H132     1.0000 0.07852  0.21493  0.35699  Biso   1.000  H 
  H133     1.0000 0.04827  0.21988  0.43656  Biso   1.000  H 
  H134     1.0000 0.06072  0.15307  0.43634  Biso   1.000  H 
  H135     1.0000 0.97573  0.13316  0.43447  Biso   1.000  H 
  H136     1.0000 0.96804  0.19493  0.46088  Biso   1.000  H 
  H137     1.0000 0.91574  0.32912  0.17883  Biso   1.000  H 
  H138     1.0000 0.90518  0.26786  0.15432  Biso   1.000  H 
  C71      1.0000 0.92528  0.32654  0.09888  Biso   1.000  C 
  H139     1.0000 0.90345  0.36267  0.10177  Biso   1.000  H 
  H140     1.0000 0.90647  0.30187  0.07166  Biso   1.000  H 
  C72      1.0000 0.97989  0.33630  0.08154  Biso   1.000  C 
  H141     1.0000 0.04713  0.30425  0.11475  Biso   1.000  H 
  H142     1.0000 0.02627  0.35938  0.14437  Biso   1.000  H 
  H143     1.0000 0.98469  0.37489  0.06632  Biso   1.000  H 
  H144     1.0000 0.99137  0.30870  0.05189  Biso   1.000  H 
  B273     1.0000 0.00000  0.07190  0.86740  Biso   1.000  B 
  B274     1.0000 0.00000  0.11720  0.88280  Biso   1.000  B 
  B275     1.0000 0.00000  0.13260  0.92810  Biso   1.000  B 
  B276     1.0000 0.00000  0.15650  0.84350  Biso   1.000  B 
  B277     1.0000 0.00000  0.14470  0.79420  Biso   1.000  B 
  B278     1.0000 0.00000  0.20580  0.85530  Biso   1.000  B 
  B279     1.0000 0.00000  0.17950  0.75800  Biso   1.000  B 
  B280     1.0000 0.00000  0.11140  0.78510  Biso   1.000  B 
  B281     1.0000 0.00000  0.24200  0.82050  Biso   1.000  B 
  B282     1.0000 0.00000  0.21490  0.88860  Biso   1.000  B 
  B283     1.0000 0.00000  0.23070  0.76930  Biso   1.000  B 
  B284     1.0000 0.00000  0.26930  0.73070  Biso   1.000  B 
  B285     1.0000 0.00000  0.16950  0.72490  Biso   1.000  B 
  B286     1.0000 0.00000  0.25800  0.67950  Biso   1.000  B 
  N19      1.0000 0.01862  0.29296  0.84147  Biso   1.000  N 
  B287     1.0000 0.00000  0.32050  0.74200  Biso   1.000  B 
  B288     1.0000 0.00000  0.29420  0.64470  Biso   1.000  B 
  N20      1.0000 0.99962  0.20424  0.65731  Biso   1.000  N 
  B289     1.0000 0.00000  0.35530  0.70580  Biso   1.000  B 
  B290     1.0000 0.00000  0.33050  0.77510  Biso   1.000  B 
  B291     1.0000 0.00000  0.34350  0.65650  Biso   1.000  B 
  B292     1.0000 0.00000  0.38280  0.61720  Biso   1.000  B 
  B293     1.0000 0.00000  0.28510  0.61140  Biso   1.000  B 
  B294     1.0000 0.00000  0.38860  0.71490  Biso   1.000  B 
  B295     1.0000 0.00000  0.36740  0.57190  Biso   1.000  B 
  B296     1.0000 0.00000  0.42810  0.63260  Biso   1.000  B 
  C73      1.0000 0.95250  0.18713  0.63781  Biso   1.000  C 
  C74      1.0000 0.04122  0.18887  0.62422  Biso   1.000  C 
  C75      1.0000 0.98674  0.32410  0.87379  Biso   1.000  C 
  C76      1.0000 0.07175  0.30150  0.84906  Biso   1.000  C 
  H145     1.0000 0.06137  0.15690  0.64127  Biso   1.000  H 
  H146     1.0000 0.06579  0.21962  0.61650  Biso   1.000  H 
  C77      1.0000 0.01771  0.17372  0.57354  Biso   1.000  C 
  H147     1.0000 0.94092  0.15188  0.65387  Biso   1.000  H 
  C78      1.0000 0.96187  0.18339  0.58045  Biso   1.000  C 
  H148     1.0000 0.92148  0.21493  0.64301  Biso   1.000  H 
  H149     1.0000 0.95173  0.21988  0.56344  Biso   1.000  H 
  H150     1.0000 0.93928  0.15307  0.56366  Biso   1.000  H 
  H151     1.0000 0.02427  0.13316  0.56553  Biso   1.000  H 
  H152     1.0000 0.03196  0.19493  0.53912  Biso   1.000  H 
  H153     1.0000 0.08426  0.32912  0.82117  Biso   1.000  H 
  H154     1.0000 0.09482  0.26786  0.84568  Biso   1.000  H 
  C79      1.0000 0.07472  0.32654  0.90112  Biso   1.000  C 
  H155     1.0000 0.09654  0.36267  0.89823  Biso   1.000  H 
  H156     1.0000 0.09353  0.30187  0.92834  Biso   1.000  H 
  C80      1.0000 0.02011  0.33630  0.91846  Biso   1.000  C 
  H157     1.0000 0.95287  0.30425  0.88525  Biso   1.000  H 
  H158     1.0000 0.97373  0.35938  0.85563  Biso   1.000  H 
  H159     1.0000 0.01531  0.37489  0.93368  Biso   1.000  H 
  H160     1.0000 0.00863  0.30870  0.94811  Biso   1.000  H 
  B297     1.0000 0.00000  0.92810  0.86740  Biso   1.000  B 
  B298     1.0000 0.00000  0.88280  0.88280  Biso   1.000  B 
  B299     1.0000 0.00000  0.86740  0.92810  Biso   1.000  B 
  B300     1.0000 0.00000  0.84350  0.84350  Biso   1.000  B 
  B301     1.0000 0.00000  0.85530  0.79420  Biso   1.000  B 
  B302     1.0000 0.00000  0.79420  0.85530  Biso   1.000  B 
  B303     1.0000 0.00000  0.82050  0.75800  Biso   1.000  B 
  B304     1.0000 0.00000  0.88860  0.78510  Biso   1.000  B 
  B305     1.0000 0.00000  0.75800  0.82050  Biso   1.000  B 
  B306     1.0000 0.00000  0.78510  0.88860  Biso   1.000  B 
  B307     1.0000 0.00000  0.76930  0.76930  Biso   1.000  B 
  B308     1.0000 0.00000  0.73070  0.73070  Biso   1.000  B 
  B309     1.0000 0.00000  0.83050  0.72490  Biso   1.000  B 
  B310     1.0000 0.00000  0.74200  0.67950  Biso   1.000  B 
  N21      1.0000 0.98138  0.70705  0.84147  Biso   1.000  N 
  B311     1.0000 0.00000  0.67950  0.74200  Biso   1.000  B 
  B312     1.0000 0.00000  0.70580  0.64470  Biso   1.000  B 
  N22      1.0000 0.00038  0.79576  0.65731  Biso   1.000  N 
  B313     1.0000 0.00000  0.64470  0.70580  Biso   1.000  B 
  B314     1.0000 0.00000  0.66950  0.77510  Biso   1.000  B 
  B315     1.0000 0.00000  0.65650  0.65650  Biso   1.000  B 
  B316     1.0000 0.00000  0.61720  0.61720  Biso   1.000  B 
  B317     1.0000 0.00000  0.71490  0.61140  Biso   1.000  B 
  B318     1.0000 0.00000  0.61140  0.71490  Biso   1.000  B 
  B319     1.0000 0.00000  0.63260  0.57190  Biso   1.000  B 
  B320     1.0000 0.00000  0.57190  0.63260  Biso   1.000  B 
  C81      1.0000 0.04750  0.81288  0.63781  Biso   1.000  C 
  C82      1.0000 0.95878  0.81114  0.62422  Biso   1.000  C 
  C83      1.0000 0.01326  0.67590  0.87379  Biso   1.000  C 
  C84      1.0000 0.92825  0.69851  0.84906  Biso   1.000  C 
  H161     1.0000 0.93863  0.84310  0.64127  Biso   1.000  H 
  H162     1.0000 0.93421  0.78038  0.61650  Biso   1.000  H 
  C85      1.0000 0.98229  0.82628  0.57354  Biso   1.000  C 
  H163     1.0000 0.05908  0.84812  0.65387  Biso   1.000  H 
  C86      1.0000 0.03813  0.81661  0.58045  Biso   1.000  C 
  H164     1.0000 0.07852  0.78507  0.64301  Biso   1.000  H 
  H165     1.0000 0.04827  0.78012  0.56344  Biso   1.000  H 
  H166     1.0000 0.06072  0.84693  0.56366  Biso   1.000  H 
  H167     1.0000 0.97573  0.86684  0.56553  Biso   1.000  H 
  H168     1.0000 0.96804  0.80508  0.53912  Biso   1.000  H 
  H169     1.0000 0.91574  0.67088  0.82117  Biso   1.000  H 
  H170     1.0000 0.90518  0.73214  0.84568  Biso   1.000  H 
  C87      1.0000 0.92528  0.67346  0.90112  Biso   1.000  C 
  H171     1.0000 0.90345  0.63733  0.89823  Biso   1.000  H 
  H172     1.0000 0.90647  0.69813  0.92834  Biso   1.000  H 
  C88      1.0000 0.97989  0.66370  0.91846  Biso   1.000  C 
  H173     1.0000 0.04713  0.69575  0.88525  Biso   1.000  H 
  H174     1.0000 0.02627  0.64062  0.85563  Biso   1.000  H 
  H175     1.0000 0.98469  0.62511  0.93368  Biso   1.000  H 
  H176     1.0000 0.99137  0.69130  0.94811  Biso   1.000  H 
  B321     1.0000 0.00000  0.92810  0.13260  Biso   1.000  B 
  B322     1.0000 0.00000  0.88280  0.11720  Biso   1.000  B 
  B323     1.0000 0.00000  0.86740  0.07190  Biso   1.000  B 
  B324     1.0000 0.00000  0.84350  0.15650  Biso   1.000  B 
  B325     1.0000 0.00000  0.85530  0.20580  Biso   1.000  B 
  B326     1.0000 0.00000  0.79420  0.14470  Biso   1.000  B 
  B327     1.0000 0.00000  0.82050  0.24200  Biso   1.000  B 
  B328     1.0000 0.00000  0.88860  0.21490  Biso   1.000  B 
  B329     1.0000 0.00000  0.75800  0.17950  Biso   1.000  B 
  B330     1.0000 0.00000  0.78510  0.11140  Biso   1.000  B 
  B331     1.0000 0.00000  0.76930  0.23070  Biso   1.000  B 
  B332     1.0000 0.00000  0.73070  0.26930  Biso   1.000  B 
  B333     1.0000 0.00000  0.83050  0.27510  Biso   1.000  B 
  B334     1.0000 0.00000  0.74200  0.32050  Biso   1.000  B 
  N23      1.0000 0.01862  0.70705  0.15853  Biso   1.000  N 
  B335     1.0000 0.00000  0.67950  0.25800  Biso   1.000  B 
  B336     1.0000 0.00000  0.70580  0.35530  Biso   1.000  B 
  N24      1.0000 0.99962  0.79576  0.34269  Biso   1.000  N 
  B337     1.0000 0.00000  0.64470  0.29420  Biso   1.000  B 
  B338     1.0000 0.00000  0.66950  0.22490  Biso   1.000  B 
  B339     1.0000 0.00000  0.65650  0.34350  Biso   1.000  B 
  B340     1.0000 0.00000  0.61720  0.38280  Biso   1.000  B 
  B341     1.0000 0.00000  0.71490  0.38860  Biso   1.000  B 
  B342     1.0000 0.00000  0.61140  0.28510  Biso   1.000  B 
  B343     1.0000 0.00000  0.63260  0.42810  Biso   1.000  B 
  B344     1.0000 0.00000  0.57190  0.36740  Biso   1.000  B 
  C89      1.0000 0.95250  0.81288  0.36219  Biso   1.000  C 
  C90      1.0000 0.04122  0.81114  0.37578  Biso   1.000  C 
  C91      1.0000 0.98674  0.67590  0.12621  Biso   1.000  C 
  C92      1.0000 0.07175  0.69851  0.15094  Biso   1.000  C 
  H177     1.0000 0.06137  0.84310  0.35873  Biso   1.000  H 
  H178     1.0000 0.06579  0.78038  0.38350  Biso   1.000  H 
  C93      1.0000 0.01771  0.82628  0.42646  Biso   1.000  C 
  H179     1.0000 0.94092  0.84812  0.34613  Biso   1.000  H 
  C94      1.0000 0.96187  0.81661  0.41955  Biso   1.000  C 
  H180     1.0000 0.92148  0.78507  0.35699  Biso   1.000  H 
  H181     1.0000 0.95173  0.78012  0.43656  Biso   1.000  H 
  H182     1.0000 0.93928  0.84693  0.43634  Biso   1.000  H 
  H183     1.0000 0.02427  0.86684  0.43447  Biso   1.000  H 
  H184     1.0000 0.03196  0.80508  0.46088  Biso   1.000  H 
  H185     1.0000 0.08426  0.67088  0.17883  Biso   1.000  H 
  H186     1.0000 0.09482  0.73214  0.15432  Biso   1.000  H 
  C95      1.0000 0.07472  0.67346  0.09888  Biso   1.000  C 
  H187     1.0000 0.09654  0.63733  0.10177  Biso   1.000  H 
  H188     1.0000 0.09353  0.69813  0.07166  Biso   1.000  H 
  C96      1.0000 0.02011  0.66370  0.08154  Biso   1.000  C 
  H189     1.0000 0.95287  0.69575  0.11475  Biso   1.000  H 
  H190     1.0000 0.97373  0.64062  0.14437  Biso   1.000  H 
  H191     1.0000 0.01531  0.62511  0.06632  Biso   1.000  H 
  H192     1.0000 0.00863  0.69130  0.05189  Biso   1.000  H 
  B345     1.0000 0.13260  0.50000  0.57190  Biso   1.000  B 
  B346     1.0000 0.11720  0.50000  0.61720  Biso   1.000  B 
  B347     1.0000 0.07190  0.50000  0.63260  Biso   1.000  B 
  B348     1.0000 0.15650  0.50000  0.65650  Biso   1.000  B 
  B349     1.0000 0.20580  0.50000  0.64470  Biso   1.000  B 
  B350     1.0000 0.14470  0.50000  0.70580  Biso   1.000  B 
  B351     1.0000 0.24200  0.50000  0.67950  Biso   1.000  B 
  B352     1.0000 0.21490  0.50000  0.61140  Biso   1.000  B 
  B353     1.0000 0.17950  0.50000  0.74200  Biso   1.000  B 
  B354     1.0000 0.11140  0.50000  0.71490  Biso   1.000  B 
  B355     1.0000 0.23070  0.50000  0.73070  Biso   1.000  B 
  B356     1.0000 0.26930  0.50000  0.76930  Biso   1.000  B 
  B357     1.0000 0.27510  0.50000  0.66950  Biso   1.000  B 
  B358     1.0000 0.32050  0.50000  0.75800  Biso   1.000  B 
  N25      1.0000 0.15841  0.50822  0.79460  Biso   1.000  N 
  B359     1.0000 0.25800  0.50000  0.82050  Biso   1.000  B 
  B360     1.0000 0.35530  0.50000  0.79420  Biso   1.000  B 
  N26      1.0000 0.34109  0.51709  0.70737  Biso   1.000  N 
  B361     1.0000 0.29420  0.50000  0.85530  Biso   1.000  B 
  B362     1.0000 0.22490  0.50000  0.83050  Biso   1.000  B 
  B363     1.0000 0.34350  0.50000  0.84350  Biso   1.000  B 
  B364     1.0000 0.38280  0.50000  0.88280  Biso   1.000  B 
  B365     1.0000 0.38860  0.50000  0.78510  Biso   1.000  B 
  B366     1.0000 0.28510  0.50000  0.88860  Biso   1.000  B 
  B367     1.0000 0.42810  0.50000  0.86740  Biso   1.000  B 
  B368     1.0000 0.36740  0.50000  0.92810  Biso   1.000  B 
  C97      1.0000 0.35361  0.56897  0.69861  Biso   1.000  C 
  C98      1.0000 0.37760  0.48399  0.68556  Biso   1.000  C 
  C99      1.0000 0.13016  0.55376  0.80246  Biso   1.000  C 
  C100     1.0000 0.13744  0.46533  0.82169  Biso   1.000  C 
  H193     1.0000 0.36096  0.46137  0.65653  Biso   1.000  H 
  H194     1.0000 0.39593  0.46179  0.71321  Biso   1.000  H 
  C101     1.0000 0.41785  0.51541  0.66499  Biso   1.000  C 
  H195     1.0000 0.33104  0.57997  0.66670  Biso   1.000  H 
  C102     1.0000 0.40917  0.56730  0.68527  Biso   1.000  C 
  H196     1.0000 0.34889  0.59392  0.73150  Biso   1.000  H 
  H197     1.0000 0.43378  0.57475  0.71971  Biso   1.000  H 
  H198     1.0000 0.42095  0.59471  0.65761  Biso   1.000  H 
  H199     1.0000 0.41659  0.51487  0.62321  Biso   1.000  H 
  H200     1.0000 0.45586  0.49958  0.67756  Biso   1.000  H 
  H201     1.0000 0.16117  0.45436  0.85078  Biso   1.000  H 
  H202     1.0000 0.12863  0.43229  0.79717  Biso   1.000  H 
  C103     1.0000 0.08913  0.48387  0.84650  Biso   1.000  C 
  H203     1.0000 0.08611  0.47172  0.88617  Biso   1.000  H 
  H204     1.0000 0.05879  0.46752  0.82482  Biso   1.000  H 
  C104     1.0000 0.08464  0.53908  0.83718  Biso   1.000  C 
  H205     1.0000 0.11475  0.56659  0.76762  Biso   1.000  H 
  H206     1.0000 0.15615  0.58146  0.81766  Biso   1.000  H 
  H207     1.0000 0.08569  0.56108  0.87311  Biso   1.000  H 
  H208     1.0000 0.04903  0.54901  0.81960  Biso   1.000  H 
  B369     1.0000 0.86740  0.50000  0.57190  Biso   1.000  B 
  B370     1.0000 0.88280  0.50000  0.61720  Biso   1.000  B 
  B371     1.0000 0.92810  0.50000  0.63260  Biso   1.000  B 
  B372     1.0000 0.84350  0.50000  0.65650  Biso   1.000  B 
  B373     1.0000 0.79420  0.50000  0.64470  Biso   1.000  B 
  B374     1.0000 0.85530  0.50000  0.70580  Biso   1.000  B 
  B375     1.0000 0.75800  0.50000  0.67950  Biso   1.000  B 
  B376     1.0000 0.78510  0.50000  0.61140  Biso   1.000  B 
  B377     1.0000 0.82050  0.50000  0.74200  Biso   1.000  B 
  B378     1.0000 0.88860  0.50000  0.71490  Biso   1.000  B 
  B379     1.0000 0.76930  0.50000  0.73070  Biso   1.000  B 
  B380     1.0000 0.73070  0.50000  0.76930  Biso   1.000  B 
  B381     1.0000 0.72490  0.50000  0.66950  Biso   1.000  B 
  B382     1.0000 0.67950  0.50000  0.75800  Biso   1.000  B 
  N27      1.0000 0.84159  0.49178  0.79460  Biso   1.000  N 
  B383     1.0000 0.74200  0.50000  0.82050  Biso   1.000  B 
  B384     1.0000 0.64470  0.50000  0.79420  Biso   1.000  B 
  N28      1.0000 0.65892  0.48291  0.70737  Biso   1.000  N 
  B385     1.0000 0.70580  0.50000  0.85530  Biso   1.000  B 
  B386     1.0000 0.77510  0.50000  0.83050  Biso   1.000  B 
  B387     1.0000 0.65650  0.50000  0.84350  Biso   1.000  B 
  B388     1.0000 0.61720  0.50000  0.88280  Biso   1.000  B 
  B389     1.0000 0.61140  0.50000  0.78510  Biso   1.000  B 
  B390     1.0000 0.71490  0.50000  0.88860  Biso   1.000  B 
  B391     1.0000 0.57190  0.50000  0.86740  Biso   1.000  B 
  B392     1.0000 0.63260  0.50000  0.92810  Biso   1.000  B 
  C105     1.0000 0.64639  0.43103  0.69861  Biso   1.000  C 
  C106     1.0000 0.62240  0.51601  0.68556  Biso   1.000  C 
  C107     1.0000 0.86984  0.44624  0.80246  Biso   1.000  C 
  C108     1.0000 0.86256  0.53467  0.82169  Biso   1.000  C 
  H209     1.0000 0.63904  0.53863  0.65653  Biso   1.000  H 
  H210     1.0000 0.60407  0.53821  0.71321  Biso   1.000  H 
  C109     1.0000 0.58215  0.48459  0.66499  Biso   1.000  C 
  H211     1.0000 0.66896  0.42003  0.66670  Biso   1.000  H 
  C110     1.0000 0.59083  0.43270  0.68527  Biso   1.000  C 
  H212     1.0000 0.65112  0.40608  0.73150  Biso   1.000  H 
  H213     1.0000 0.56622  0.42525  0.71971  Biso   1.000  H 
  H214     1.0000 0.57905  0.40529  0.65761  Biso   1.000  H 
  H215     1.0000 0.58341  0.48513  0.62321  Biso   1.000  H 
  H216     1.0000 0.54414  0.50042  0.67756  Biso   1.000  H 
  H217     1.0000 0.83883  0.54564  0.85078  Biso   1.000  H 
  H218     1.0000 0.87137  0.56771  0.79717  Biso   1.000  H 
  C111     1.0000 0.91087  0.51613  0.84650  Biso   1.000  C 
  H219     1.0000 0.91389  0.52828  0.88617  Biso   1.000  H 
  H220     1.0000 0.94121  0.53248  0.82482  Biso   1.000  H 
  C112     1.0000 0.91536  0.46092  0.83718  Biso   1.000  C 
  H221     1.0000 0.88525  0.43341  0.76762  Biso   1.000  H 
  H222     1.0000 0.84385  0.41854  0.81766  Biso   1.000  H 
  H223     1.0000 0.91431  0.43892  0.87311  Biso   1.000  H 
  H224     1.0000 0.95097  0.45099  0.81960  Biso   1.000  H 
  B393     1.0000 0.86740  0.50000  0.42810  Biso   1.000  B 
  B394     1.0000 0.88280  0.50000  0.38280  Biso   1.000  B 
  B395     1.0000 0.92810  0.50000  0.36740  Biso   1.000  B 
  B396     1.0000 0.84350  0.50000  0.34350  Biso   1.000  B 
  B397     1.0000 0.79420  0.50000  0.35530  Biso   1.000  B 
  B398     1.0000 0.85530  0.50000  0.29420  Biso   1.000  B 
  B399     1.0000 0.75800  0.50000  0.32050  Biso   1.000  B 
  B400     1.0000 0.78510  0.50000  0.38860  Biso   1.000  B 
  B401     1.0000 0.82050  0.50000  0.25800  Biso   1.000  B 
  B402     1.0000 0.88860  0.50000  0.28510  Biso   1.000  B 
  B403     1.0000 0.76930  0.50000  0.26930  Biso   1.000  B 
  B404     1.0000 0.73070  0.50000  0.23070  Biso   1.000  B 
  B405     1.0000 0.72490  0.50000  0.33050  Biso   1.000  B 
  B406     1.0000 0.67950  0.50000  0.24200  Biso   1.000  B 
  N29      1.0000 0.84159  0.50822  0.20540  Biso   1.000  N 
  B407     1.0000 0.74200  0.50000  0.17950  Biso   1.000  B 
  B408     1.0000 0.64470  0.50000  0.20580  Biso   1.000  B 
  N30      1.0000 0.65892  0.51709  0.29263  Biso   1.000  N 
  B409     1.0000 0.70580  0.50000  0.14470  Biso   1.000  B 
  B410     1.0000 0.77510  0.50000  0.16950  Biso   1.000  B 
  B411     1.0000 0.65650  0.50000  0.15650  Biso   1.000  B 
  B412     1.0000 0.61720  0.50000  0.11720  Biso   1.000  B 
  B413     1.0000 0.61140  0.50000  0.21490  Biso   1.000  B 
  B414     1.0000 0.71490  0.50000  0.11140  Biso   1.000  B 
  B415     1.0000 0.57190  0.50000  0.13260  Biso   1.000  B 
  B416     1.0000 0.63260  0.50000  0.07190  Biso   1.000  B 
  C113     1.0000 0.64639  0.56897  0.30139  Biso   1.000  C 
  C114     1.0000 0.62240  0.48399  0.31445  Biso   1.000  C 
  C115     1.0000 0.86984  0.55376  0.19754  Biso   1.000  C 
  C116     1.0000 0.86256  0.46533  0.17831  Biso   1.000  C 
  H225     1.0000 0.63904  0.46137  0.34347  Biso   1.000  H 
  H226     1.0000 0.60407  0.46179  0.28679  Biso   1.000  H 
  C117     1.0000 0.58215  0.51541  0.33501  Biso   1.000  C 
  H227     1.0000 0.66896  0.57997  0.33330  Biso   1.000  H 
  C118     1.0000 0.59083  0.56730  0.31473  Biso   1.000  C 
  H228     1.0000 0.65112  0.59392  0.26850  Biso   1.000  H 
  H229     1.0000 0.56622  0.57475  0.28029  Biso   1.000  H 
  H230     1.0000 0.57905  0.59471  0.34239  Biso   1.000  H 
  H231     1.0000 0.58341  0.51487  0.37679  Biso   1.000  H 
  H232     1.0000 0.54414  0.49958  0.32244  Biso   1.000  H 
  H233     1.0000 0.83883  0.45436  0.14922  Biso   1.000  H 
  H234     1.0000 0.87137  0.43229  0.20282  Biso   1.000  H 
  C119     1.0000 0.91087  0.48387  0.15350  Biso   1.000  C 
  H235     1.0000 0.91389  0.47172  0.11383  Biso   1.000  H 
  H236     1.0000 0.94121  0.46752  0.17518  Biso   1.000  H 
  C120     1.0000 0.91536  0.53908  0.16282  Biso   1.000  C 
  H237     1.0000 0.88525  0.56659  0.23238  Biso   1.000  H 
  H238     1.0000 0.84385  0.58146  0.18233  Biso   1.000  H 
  H239     1.0000 0.91431  0.56108  0.12689  Biso   1.000  H 
  H240     1.0000 0.95097  0.54901  0.18040  Biso   1.000  H 
  B417     1.0000 0.13260  0.50000  0.42810  Biso   1.000  B 
  B418     1.0000 0.11720  0.50000  0.38280  Biso   1.000  B 
  B419     1.0000 0.07190  0.50000  0.36740  Biso   1.000  B 
  B420     1.0000 0.15650  0.50000  0.34350  Biso   1.000  B 
  B421     1.0000 0.20580  0.50000  0.35530  Biso   1.000  B 
  B422     1.0000 0.14470  0.50000  0.29420  Biso   1.000  B 
  B423     1.0000 0.24200  0.50000  0.32050  Biso   1.000  B 
  B424     1.0000 0.21490  0.50000  0.38860  Biso   1.000  B 
  B425     1.0000 0.17950  0.50000  0.25800  Biso   1.000  B 
  B426     1.0000 0.11140  0.50000  0.28510  Biso   1.000  B 
  B427     1.0000 0.23070  0.50000  0.26930  Biso   1.000  B 
  B428     1.0000 0.26930  0.50000  0.23070  Biso   1.000  B 
  B429     1.0000 0.27510  0.50000  0.33050  Biso   1.000  B 
  B430     1.0000 0.32050  0.50000  0.24200  Biso   1.000  B 
  N31      1.0000 0.15841  0.49178  0.20540  Biso   1.000  N 
  B431     1.0000 0.25800  0.50000  0.17950  Biso   1.000  B 
  B432     1.0000 0.35530  0.50000  0.20580  Biso   1.000  B 
  N32      1.0000 0.34109  0.48291  0.29263  Biso   1.000  N 
  B433     1.0000 0.29420  0.50000  0.14470  Biso   1.000  B 
  B434     1.0000 0.22490  0.50000  0.16950  Biso   1.000  B 
  B435     1.0000 0.34350  0.50000  0.15650  Biso   1.000  B 
  B436     1.0000 0.38280  0.50000  0.11720  Biso   1.000  B 
  B437     1.0000 0.38860  0.50000  0.21490  Biso   1.000  B 
  B438     1.0000 0.28510  0.50000  0.11140  Biso   1.000  B 
  B439     1.0000 0.42810  0.50000  0.13260  Biso   1.000  B 
  B440     1.0000 0.36740  0.50000  0.07190  Biso   1.000  B 
  C121     1.0000 0.35361  0.43103  0.30139  Biso   1.000  C 
  C122     1.0000 0.37760  0.51601  0.31445  Biso   1.000  C 
  C123     1.0000 0.13016  0.44624  0.19754  Biso   1.000  C 
  C124     1.0000 0.13744  0.53467  0.17831  Biso   1.000  C 
  H241     1.0000 0.36096  0.53863  0.34347  Biso   1.000  H 
  H242     1.0000 0.39593  0.53821  0.28679  Biso   1.000  H 
  C125     1.0000 0.41785  0.48459  0.33501  Biso   1.000  C 
  H243     1.0000 0.33104  0.42003  0.33330  Biso   1.000  H 
  C126     1.0000 0.40917  0.43270  0.31473  Biso   1.000  C 
  H244     1.0000 0.34889  0.40608  0.26850  Biso   1.000  H 
  H245     1.0000 0.43378  0.42525  0.28029  Biso   1.000  H 
  H246     1.0000 0.42095  0.40529  0.34239  Biso   1.000  H 
  H247     1.0000 0.41659  0.48513  0.37679  Biso   1.000  H 
  H248     1.0000 0.45586  0.50042  0.32244  Biso   1.000  H 
  H249     1.0000 0.16117  0.54564  0.14922  Biso   1.000  H 
  H250     1.0000 0.12863  0.56771  0.20282  Biso   1.000  H 
  C127     1.0000 0.08913  0.51613  0.15350  Biso   1.000  C 
  H251     1.0000 0.08611  0.52828  0.11383  Biso   1.000  H 
  H252     1.0000 0.05879  0.53248  0.17518  Biso   1.000  H 
  C128     1.0000 0.08464  0.46092  0.16282  Biso   1.000  C 
  H253     1.0000 0.11475  0.43341  0.23238  Biso   1.000  H 
  H254     1.0000 0.15615  0.41854  0.18233  Biso   1.000  H 
  H255     1.0000 0.08569  0.43892  0.12689  Biso   1.000  H 
  H256     1.0000 0.04903  0.45099  0.18040  Biso   1.000  H 
  B441     1.0000 0.07190  0.63260  0.50000  Biso   1.000  B 
  B442     1.0000 0.11720  0.61720  0.50000  Biso   1.000  B 
  B443     1.0000 0.13260  0.57190  0.50000  Biso   1.000  B 
  B444     1.0000 0.15650  0.65650  0.50000  Biso   1.000  B 
  B445     1.0000 0.14470  0.70580  0.50000  Biso   1.000  B 
  B446     1.0000 0.20580  0.64470  0.50000  Biso   1.000  B 
  B447     1.0000 0.17950  0.74200  0.50000  Biso   1.000  B 
  B448     1.0000 0.11140  0.71490  0.50000  Biso   1.000  B 
  B449     1.0000 0.24200  0.67950  0.50000  Biso   1.000  B 
  B450     1.0000 0.21490  0.61140  0.50000  Biso   1.000  B 
  B451     1.0000 0.23070  0.73070  0.50000  Biso   1.000  B 
  B452     1.0000 0.26930  0.76930  0.50000  Biso   1.000  B 
  B453     1.0000 0.16950  0.77510  0.50000  Biso   1.000  B 
  B454     1.0000 0.25800  0.82050  0.50000  Biso   1.000  B 
  N33      1.0000 0.29400  0.65786  0.48597  Biso   1.000  N 
  B455     1.0000 0.32050  0.75800  0.50000  Biso   1.000  B 
  B456     1.0000 0.29420  0.85530  0.50000  Biso   1.000  B 
  N34      1.0000 0.20692  0.84164  0.48452  Biso   1.000  N 
  B457     1.0000 0.35530  0.79420  0.50000  Biso   1.000  B 
  B458     1.0000 0.33050  0.72490  0.50000  Biso   1.000  B 
  B459     1.0000 0.34350  0.84350  0.50000  Biso   1.000  B 
  B460     1.0000 0.38280  0.88280  0.50000  Biso   1.000  B 
  B461     1.0000 0.28510  0.88860  0.50000  Biso   1.000  B 
  B462     1.0000 0.38860  0.78510  0.50000  Biso   1.000  B 
  B463     1.0000 0.36740  0.92810  0.50000  Biso   1.000  B 
  B464     1.0000 0.42810  0.86740  0.50000  Biso   1.000  B 
  C129     1.0000 0.18098  0.87534  0.51745  Biso   1.000  C 
  C130     1.0000 0.19850  0.85216  0.43195  Biso   1.000  C 
  C131     1.0000 0.32372  0.62994  0.52280  Biso   1.000  C 
  C132     1.0000 0.30618  0.64624  0.43392  Biso   1.000  C 
  H257     1.0000 0.16579  0.82965  0.42042  Biso   1.000  H 
  H258     1.0000 0.23008  0.84465  0.40767  Biso   1.000  H 
  C133     1.0000 0.18619  0.90716  0.43296  Biso   1.000  C 
  H259     1.0000 0.14250  0.86026  0.52603  Biso   1.000  H 
  C134     1.0000 0.17587  0.92177  0.48865  Biso   1.000  C 
  H260     1.0000 0.19907  0.87959  0.55230  Biso   1.000  H 
  H261     1.0000 0.20445  0.94919  0.49952  Biso   1.000  H 
  H262     1.0000 0.13716  0.93762  0.49411  Biso   1.000  H 
  H263     1.0000 0.15271  0.91261  0.41305  Biso   1.000  H 
  H264     1.0000 0.21871  0.92826  0.41604  Biso   1.000  H 
  H265     1.0000 0.32336  0.67978  0.41701  Biso   1.000  H 
  H266     1.0000 0.27362  0.63571  0.41166  Biso   1.000  H 
  C135     1.0000 0.34548  0.60411  0.43804  Biso   1.000  C 
  H267     1.0000 0.38284  0.61966  0.42828  Biso   1.000  H 
  H268     1.0000 0.33655  0.57204  0.41331  Biso   1.000  H 
  C136     1.0000 0.34434  0.58611  0.49282  Biso   1.000  C 
  H269     1.0000 0.30006  0.61768  0.55367  Biso   1.000  H 
  H270     1.0000 0.35441  0.65206  0.54046  Biso   1.000  H 
  H271     1.0000 0.38118  0.57146  0.50606  Biso   1.000  H 
  H272     1.0000 0.31557  0.55584  0.49724  Biso   1.000  H 
  B465     1.0000 0.07190  0.36740  0.50000  Biso   1.000  B 
  B466     1.0000 0.11720  0.38280  0.50000  Biso   1.000  B 
  B467     1.0000 0.13260  0.42810  0.50000  Biso   1.000  B 
  B468     1.0000 0.15650  0.34350  0.50000  Biso   1.000  B 
  B469     1.0000 0.14470  0.29420  0.50000  Biso   1.000  B 
  B470     1.0000 0.20580  0.35530  0.50000  Biso   1.000  B 
  B471     1.0000 0.17950  0.25800  0.50000  Biso   1.000  B 
  B472     1.0000 0.11140  0.28510  0.50000  Biso   1.000  B 
  B473     1.0000 0.24200  0.32050  0.50000  Biso   1.000  B 
  B474     1.0000 0.21490  0.38860  0.50000  Biso   1.000  B 
  B475     1.0000 0.23070  0.26930  0.50000  Biso   1.000  B 
  B476     1.0000 0.26930  0.23070  0.50000  Biso   1.000  B 
  B477     1.0000 0.16950  0.22490  0.50000  Biso   1.000  B 
  B478     1.0000 0.25800  0.17950  0.50000  Biso   1.000  B 
  N35      1.0000 0.29400  0.34214  0.51403  Biso   1.000  N 
  B479     1.0000 0.32050  0.24200  0.50000  Biso   1.000  B 
  B480     1.0000 0.29420  0.14470  0.50000  Biso   1.000  B 
  N36      1.0000 0.20692  0.15836  0.51548  Biso   1.000  N 
  B481     1.0000 0.35530  0.20580  0.50000  Biso   1.000  B 
  B482     1.0000 0.33050  0.27510  0.50000  Biso   1.000  B 
  B483     1.0000 0.34350  0.15650  0.50000  Biso   1.000  B 
  B484     1.0000 0.38280  0.11720  0.50000  Biso   1.000  B 
  B485     1.0000 0.28510  0.11140  0.50000  Biso   1.000  B 
  B486     1.0000 0.38860  0.21490  0.50000  Biso   1.000  B 
  B487     1.0000 0.36740  0.07190  0.50000  Biso   1.000  B 
  B488     1.0000 0.42810  0.13260  0.50000  Biso   1.000  B 
  C137     1.0000 0.18098  0.12466  0.48255  Biso   1.000  C 
  C138     1.0000 0.19850  0.14785  0.56805  Biso   1.000  C 
  C139     1.0000 0.32372  0.37006  0.47720  Biso   1.000  C 
  C140     1.0000 0.30618  0.35376  0.56608  Biso   1.000  C 
  H273     1.0000 0.16579  0.17035  0.57958  Biso   1.000  H 
  H274     1.0000 0.23008  0.15535  0.59233  Biso   1.000  H 
  C141     1.0000 0.18619  0.09284  0.56704  Biso   1.000  C 
  H275     1.0000 0.14250  0.13974  0.47397  Biso   1.000  H 
  C142     1.0000 0.17587  0.07823  0.51135  Biso   1.000  C 
  H276     1.0000 0.19907  0.12041  0.44770  Biso   1.000  H 
  H277     1.0000 0.20445  0.05081  0.50048  Biso   1.000  H 
  H278     1.0000 0.13716  0.06238  0.50589  Biso   1.000  H 
  H279     1.0000 0.15271  0.08739  0.58695  Biso   1.000  H 
  H280     1.0000 0.21871  0.07174  0.58396  Biso   1.000  H 
  H281     1.0000 0.32336  0.32022  0.58299  Biso   1.000  H 
  H282     1.0000 0.27362  0.36429  0.58834  Biso   1.000  H 
  C143     1.0000 0.34548  0.39589  0.56196  Biso   1.000  C 
  H283     1.0000 0.38284  0.38034  0.57172  Biso   1.000  H 
  H284     1.0000 0.33655  0.42796  0.58669  Biso   1.000  H 
  C144     1.0000 0.34434  0.41389  0.50718  Biso   1.000  C 
  H285     1.0000 0.30006  0.38232  0.44633  Biso   1.000  H 
  H286     1.0000 0.35441  0.34794  0.45954  Biso   1.000  H 
  H287     1.0000 0.38118  0.42854  0.49394  Biso   1.000  H 
  H288     1.0000 0.31557  0.44416  0.50276  Biso   1.000  H 
  B489     1.0000 0.92810  0.36740  0.50000  Biso   1.000  B 
  B490     1.0000 0.88280  0.38280  0.50000  Biso   1.000  B 
  B491     1.0000 0.86740  0.42810  0.50000  Biso   1.000  B 
  B492     1.0000 0.84350  0.34350  0.50000  Biso   1.000  B 
  B493     1.0000 0.85530  0.29420  0.50000  Biso   1.000  B 
  B494     1.0000 0.79420  0.35530  0.50000  Biso   1.000  B 
  B495     1.0000 0.82050  0.25800  0.50000  Biso   1.000  B 
  B496     1.0000 0.88860  0.28510  0.50000  Biso   1.000  B 
  B497     1.0000 0.75800  0.32050  0.50000  Biso   1.000  B 
  B498     1.0000 0.78510  0.38860  0.50000  Biso   1.000  B 
  B499     1.0000 0.76930  0.26930  0.50000  Biso   1.000  B 
  B500     1.0000 0.73070  0.23070  0.50000  Biso   1.000  B 
  B501     1.0000 0.83050  0.22490  0.50000  Biso   1.000  B 
  B502     1.0000 0.74200  0.17950  0.50000  Biso   1.000  B 
  N37      1.0000 0.70600  0.34214  0.48597  Biso   1.000  N 
  B503     1.0000 0.67950  0.24200  0.50000  Biso   1.000  B 
  B504     1.0000 0.70580  0.14470  0.50000  Biso   1.000  B 
  N38      1.0000 0.79308  0.15836  0.48452  Biso   1.000  N 
  B505     1.0000 0.64470  0.20580  0.50000  Biso   1.000  B 
  B506     1.0000 0.66950  0.27510  0.50000  Biso   1.000  B 
  B507     1.0000 0.65650  0.15650  0.50000  Biso   1.000  B 
  B508     1.0000 0.61720  0.11720  0.50000  Biso   1.000  B 
  B509     1.0000 0.71490  0.11140  0.50000  Biso   1.000  B 
  B510     1.0000 0.61140  0.21490  0.50000  Biso   1.000  B 
  B511     1.0000 0.63260  0.07190  0.50000  Biso   1.000  B 
  B512     1.0000 0.57190  0.13260  0.50000  Biso   1.000  B 
  C145     1.0000 0.81902  0.12466  0.51745  Biso   1.000  C 
  C146     1.0000 0.80150  0.14785  0.43195  Biso   1.000  C 
  C147     1.0000 0.67628  0.37006  0.52280  Biso   1.000  C 
  C148     1.0000 0.69382  0.35376  0.43392  Biso   1.000  C 
  H289     1.0000 0.83421  0.17035  0.42042  Biso   1.000  H 
  H290     1.0000 0.76992  0.15535  0.40767  Biso   1.000  H 
  C149     1.0000 0.81381  0.09284  0.43296  Biso   1.000  C 
  H291     1.0000 0.85750  0.13974  0.52603  Biso   1.000  H 
  C150     1.0000 0.82413  0.07823  0.48865  Biso   1.000  C 
  H292     1.0000 0.80093  0.12041  0.55230  Biso   1.000  H 
  H293     1.0000 0.79555  0.05081  0.49952  Biso   1.000  H 
  H294     1.0000 0.86284  0.06238  0.49411  Biso   1.000  H 
  H295     1.0000 0.84729  0.08739  0.41305  Biso   1.000  H 
  H296     1.0000 0.78129  0.07174  0.41604  Biso   1.000  H 
  H297     1.0000 0.67664  0.32022  0.41701  Biso   1.000  H 
  H298     1.0000 0.72638  0.36429  0.41166  Biso   1.000  H 
  C151     1.0000 0.65452  0.39589  0.43804  Biso   1.000  C 
  H299     1.0000 0.61716  0.38034  0.42828  Biso   1.000  H 
  H300     1.0000 0.66345  0.42796  0.41331  Biso   1.000  H 
  C152     1.0000 0.65566  0.41389  0.49282  Biso   1.000  C 
  H301     1.0000 0.69994  0.38232  0.55367  Biso   1.000  H 
  H302     1.0000 0.64559  0.34794  0.54046  Biso   1.000  H 
  H303     1.0000 0.61882  0.42854  0.50606  Biso   1.000  H 
  H304     1.0000 0.68443  0.44416  0.49724  Biso   1.000  H 
  B513     1.0000 0.92810  0.63260  0.50000  Biso   1.000  B 
  B514     1.0000 0.88280  0.61720  0.50000  Biso   1.000  B 
  B515     1.0000 0.86740  0.57190  0.50000  Biso   1.000  B 
  B516     1.0000 0.84350  0.65650  0.50000  Biso   1.000  B 
  B517     1.0000 0.85530  0.70580  0.50000  Biso   1.000  B 
  B518     1.0000 0.79420  0.64470  0.50000  Biso   1.000  B 
  B519     1.0000 0.82050  0.74200  0.50000  Biso   1.000  B 
  B520     1.0000 0.88860  0.71490  0.50000  Biso   1.000  B 
  B521     1.0000 0.75800  0.67950  0.50000  Biso   1.000  B 
  B522     1.0000 0.78510  0.61140  0.50000  Biso   1.000  B 
  B523     1.0000 0.76930  0.73070  0.50000  Biso   1.000  B 
  B524     1.0000 0.73070  0.76930  0.50000  Biso   1.000  B 
  B525     1.0000 0.83050  0.77510  0.50000  Biso   1.000  B 
  B526     1.0000 0.74200  0.82050  0.50000  Biso   1.000  B 
  N39      1.0000 0.70600  0.65786  0.51403  Biso   1.000  N 
  B527     1.0000 0.67950  0.75800  0.50000  Biso   1.000  B 
  B528     1.0000 0.70580  0.85530  0.50000  Biso   1.000  B 
  N40      1.0000 0.79308  0.84164  0.51548  Biso   1.000  N 
  B529     1.0000 0.64470  0.79420  0.50000  Biso   1.000  B 
  B530     1.0000 0.66950  0.72490  0.50000  Biso   1.000  B 
  B531     1.0000 0.65650  0.84350  0.50000  Biso   1.000  B 
  B532     1.0000 0.61720  0.88280  0.50000  Biso   1.000  B 
  B533     1.0000 0.71490  0.88860  0.50000  Biso   1.000  B 
  B534     1.0000 0.61140  0.78510  0.50000  Biso   1.000  B 
  B535     1.0000 0.63260  0.92810  0.50000  Biso   1.000  B 
  B536     1.0000 0.57190  0.86740  0.50000  Biso   1.000  B 
  C153     1.0000 0.81902  0.87534  0.48255  Biso   1.000  C 
  C154     1.0000 0.80150  0.85216  0.56805  Biso   1.000  C 
  C155     1.0000 0.67628  0.62994  0.47720  Biso   1.000  C 
  C156     1.0000 0.69382  0.64624  0.56608  Biso   1.000  C 
  H305     1.0000 0.83421  0.82965  0.57958  Biso   1.000  H 
  H306     1.0000 0.76992  0.84465  0.59233  Biso   1.000  H 
  C157     1.0000 0.81381  0.90716  0.56704  Biso   1.000  C 
  H307     1.0000 0.85750  0.86026  0.47397  Biso   1.000  H 
  C158     1.0000 0.82413  0.92177  0.51135  Biso   1.000  C 
  H308     1.0000 0.80093  0.87959  0.44770  Biso   1.000  H 
  H309     1.0000 0.79555  0.94919  0.50048  Biso   1.000  H 
  H310     1.0000 0.86284  0.93762  0.50589  Biso   1.000  H 
  H311     1.0000 0.84729  0.91261  0.58695  Biso   1.000  H 
  H312     1.0000 0.78129  0.92826  0.58396  Biso   1.000  H 
  H313     1.0000 0.67664  0.67978  0.58299  Biso   1.000  H 
  H314     1.0000 0.72638  0.63571  0.58834  Biso   1.000  H 
  C159     1.0000 0.65452  0.60411  0.56196  Biso   1.000  C 
  H315     1.0000 0.61716  0.61966  0.57172  Biso   1.000  H 
  H316     1.0000 0.66345  0.57204  0.58669  Biso   1.000  H 
  C160     1.0000 0.65566  0.58611  0.50718  Biso   1.000  C 
  H317     1.0000 0.69994  0.61768  0.44633  Biso   1.000  H 
  H318     1.0000 0.64559  0.65206  0.45954  Biso   1.000  H 
  H319     1.0000 0.61882  0.57146  0.49394  Biso   1.000  H 
  H320     1.0000 0.68443  0.55584  0.50276  Biso   1.000  H 
  B537     1.0000 0.50000  0.07190  0.63260  Biso   1.000  B 
  B538     1.0000 0.50000  0.11720  0.61720  Biso   1.000  B 
  B539     1.0000 0.50000  0.13260  0.57190  Biso   1.000  B 
  B540     1.0000 0.50000  0.15650  0.65650  Biso   1.000  B 
  B541     1.0000 0.50000  0.14470  0.70580  Biso   1.000  B 
  B542     1.0000 0.50000  0.20580  0.64470  Biso   1.000  B 
  B543     1.0000 0.50000  0.17950  0.74200  Biso   1.000  B 
  B544     1.0000 0.50000  0.11140  0.71490  Biso   1.000  B 
  B545     1.0000 0.50000  0.24200  0.67950  Biso   1.000  B 
  B546     1.0000 0.50000  0.21490  0.61140  Biso   1.000  B 
  B547     1.0000 0.50000  0.23070  0.73070  Biso   1.000  B 
  B548     1.0000 0.50000  0.26930  0.76930  Biso   1.000  B 
  B549     1.0000 0.50000  0.16950  0.77510  Biso   1.000  B 
  B550     1.0000 0.50000  0.25800  0.82050  Biso   1.000  B 
  N41      1.0000 0.50598  0.29467  0.65840  Biso   1.000  N 
  B551     1.0000 0.50000  0.32050  0.75800  Biso   1.000  B 
  B552     1.0000 0.50000  0.29420  0.85530  Biso   1.000  B 
  N42      1.0000 0.48361  0.20694  0.84157  Biso   1.000  N 
  B553     1.0000 0.50000  0.35530  0.79420  Biso   1.000  B 
  B554     1.0000 0.50000  0.33050  0.72490  Biso   1.000  B 
  B555     1.0000 0.50000  0.34350  0.84350  Biso   1.000  B 
  B556     1.0000 0.50000  0.38280  0.88280  Biso   1.000  B 
  B557     1.0000 0.50000  0.28510  0.88860  Biso   1.000  B 
  B558     1.0000 0.50000  0.38860  0.78510  Biso   1.000  B 
  B559     1.0000 0.50000  0.36740  0.92810  Biso   1.000  B 
  B560     1.0000 0.50000  0.42810  0.86740  Biso   1.000  B 
  C161     1.0000 0.51601  0.18062  0.87525  Biso   1.000  C 
  C162     1.0000 0.43096  0.19914  0.85245  Biso   1.000  C 
  C163     1.0000 0.55010  0.30353  0.62854  Biso   1.000  C 
  C164     1.0000 0.46161  0.32065  0.63914  Biso   1.000  C 
  H321     1.0000 0.41875  0.16635  0.83058  Biso   1.000  H 
  H322     1.0000 0.40697  0.23105  0.84485  Biso   1.000  H 
  C165     1.0000 0.43216  0.18772  0.90763  Biso   1.000  C 
  H323     1.0000 0.52349  0.14173  0.86062  Biso   1.000  H 
  C166     1.0000 0.48725  0.17641  0.92183  Biso   1.000  C 
  H324     1.0000 0.55119  0.19827  0.87928  Biso   1.000  H 
  H325     1.0000 0.49898  0.20523  0.94868  Biso   1.000  H 
  H326     1.0000 0.49260  0.13786  0.93828  Biso   1.000  H 
  H327     1.0000 0.41199  0.15445  0.91415  Biso   1.000  H 
  H328     1.0000 0.41536  0.22066  0.92828  Biso   1.000  H 
  H329     1.0000 0.45262  0.35053  0.66267  Biso   1.000  H 
  H330     1.0000 0.42769  0.29643  0.63358  Biso   1.000  H 
  C167     1.0000 0.47743  0.34388  0.58939  Biso   1.000  C 
  H331     1.0000 0.46288  0.38271  0.58514  Biso   1.000  H 
  H332     1.0000 0.46323  0.31958  0.56050  Biso   1.000  H 
  C168     1.0000 0.53314  0.34004  0.58538  Biso   1.000  C 
  H333     1.0000 0.56169  0.26944  0.61045  Biso   1.000  H 
  H334     1.0000 0.57952  0.31688  0.65381  Biso   1.000  H 
  H335     1.0000 0.55165  0.37784  0.58872  Biso   1.000  H 
  H336     1.0000 0.54447  0.32516  0.54903  Biso   1.000  H 
  B561     1.0000 0.50000  0.07190  0.36740  Biso   1.000  B 
  B562     1.0000 0.50000  0.11720  0.38280  Biso   1.000  B 
  B563     1.0000 0.50000  0.13260  0.42810  Biso   1.000  B 
  B564     1.0000 0.50000  0.15650  0.34350  Biso   1.000  B 
  B565     1.0000 0.50000  0.14470  0.29420  Biso   1.000  B 
  B566     1.0000 0.50000  0.20580  0.35530  Biso   1.000  B 
  B567     1.0000 0.50000  0.17950  0.25800  Biso   1.000  B 
  B568     1.0000 0.50000  0.11140  0.28510  Biso   1.000  B 
  B569     1.0000 0.50000  0.24200  0.32050  Biso   1.000  B 
  B570     1.0000 0.50000  0.21490  0.38860  Biso   1.000  B 
  B571     1.0000 0.50000  0.23070  0.26930  Biso   1.000  B 
  B572     1.0000 0.50000  0.26930  0.23070  Biso   1.000  B 
  B573     1.0000 0.50000  0.16950  0.22490  Biso   1.000  B 
  B574     1.0000 0.50000  0.25800  0.17950  Biso   1.000  B 
  N43      1.0000 0.49402  0.29467  0.34160  Biso   1.000  N 
  B575     1.0000 0.50000  0.32050  0.24200  Biso   1.000  B 
  B576     1.0000 0.50000  0.29420  0.14470  Biso   1.000  B 
  N44      1.0000 0.51639  0.20694  0.15843  Biso   1.000  N 
  B577     1.0000 0.50000  0.35530  0.20580  Biso   1.000  B 
  B578     1.0000 0.50000  0.33050  0.27510  Biso   1.000  B 
  B579     1.0000 0.50000  0.34350  0.15650  Biso   1.000  B 
  B580     1.0000 0.50000  0.38280  0.11720  Biso   1.000  B 
  B581     1.0000 0.50000  0.28510  0.11140  Biso   1.000  B 
  B582     1.0000 0.50000  0.38860  0.21490  Biso   1.000  B 
  B583     1.0000 0.50000  0.36740  0.07190  Biso   1.000  B 
  B584     1.0000 0.50000  0.42810  0.13260  Biso   1.000  B 
  C169     1.0000 0.48399  0.18062  0.12475  Biso   1.000  C 
  C170     1.0000 0.56904  0.19914  0.14755  Biso   1.000  C 
  C171     1.0000 0.44990  0.30353  0.37146  Biso   1.000  C 
  C172     1.0000 0.53839  0.32065  0.36086  Biso   1.000  C 
  H337     1.0000 0.58125  0.16635  0.16942  Biso   1.000  H 
  H338     1.0000 0.59303  0.23105  0.15514  Biso   1.000  H 
  C173     1.0000 0.56784  0.18772  0.09237  Biso   1.000  C 
  H339     1.0000 0.47651  0.14173  0.13938  Biso   1.000  H 
  C174     1.0000 0.51275  0.17641  0.07817  Biso   1.000  C 
  H340     1.0000 0.44881  0.19827  0.12072  Biso   1.000  H 
  H341     1.0000 0.50102  0.20523  0.05132  Biso   1.000  H 
  H342     1.0000 0.50740  0.13786  0.06172  Biso   1.000  H 
  H343     1.0000 0.58801  0.15445  0.08585  Biso   1.000  H 
  H344     1.0000 0.58464  0.22066  0.07172  Biso   1.000  H 
  H345     1.0000 0.54738  0.35053  0.33733  Biso   1.000  H 
  H346     1.0000 0.57231  0.29643  0.36642  Biso   1.000  H 
  C175     1.0000 0.52257  0.34388  0.41061  Biso   1.000  C 
  H347     1.0000 0.53712  0.38271  0.41486  Biso   1.000  H 
  H348     1.0000 0.53677  0.31958  0.43950  Biso   1.000  H 
  C176     1.0000 0.46686  0.34004  0.41462  Biso   1.000  C 
  H349     1.0000 0.43831  0.26944  0.38955  Biso   1.000  H 
  H350     1.0000 0.42048  0.31688  0.34619  Biso   1.000  H 
  H351     1.0000 0.44835  0.37784  0.41128  Biso   1.000  H 
  H352     1.0000 0.45553  0.32516  0.45097  Biso   1.000  H 
  B585     1.0000 0.50000  0.92810  0.36740  Biso   1.000  B 
  B586     1.0000 0.50000  0.88280  0.38280  Biso   1.000  B 
  B587     1.0000 0.50000  0.86740  0.42810  Biso   1.000  B 
  B588     1.0000 0.50000  0.84350  0.34350  Biso   1.000  B 
  B589     1.0000 0.50000  0.85530  0.29420  Biso   1.000  B 
  B590     1.0000 0.50000  0.79420  0.35530  Biso   1.000  B 
  B591     1.0000 0.50000  0.82050  0.25800  Biso   1.000  B 
  B592     1.0000 0.50000  0.88860  0.28510  Biso   1.000  B 
  B593     1.0000 0.50000  0.75800  0.32050  Biso   1.000  B 
  B594     1.0000 0.50000  0.78510  0.38860  Biso   1.000  B 
  B595     1.0000 0.50000  0.76930  0.26930  Biso   1.000  B 
  B596     1.0000 0.50000  0.73070  0.23070  Biso   1.000  B 
  B597     1.0000 0.50000  0.83050  0.22490  Biso   1.000  B 
  B598     1.0000 0.50000  0.74200  0.17950  Biso   1.000  B 
  N45      1.0000 0.50598  0.70533  0.34160  Biso   1.000  N 
  B599     1.0000 0.50000  0.67950  0.24200  Biso   1.000  B 
  B600     1.0000 0.50000  0.70580  0.14470  Biso   1.000  B 
  N46      1.0000 0.48361  0.79306  0.15843  Biso   1.000  N 
  B601     1.0000 0.50000  0.64470  0.20580  Biso   1.000  B 
  B602     1.0000 0.50000  0.66950  0.27510  Biso   1.000  B 
  B603     1.0000 0.50000  0.65650  0.15650  Biso   1.000  B 
  B604     1.0000 0.50000  0.61720  0.11720  Biso   1.000  B 
  B605     1.0000 0.50000  0.71490  0.11140  Biso   1.000  B 
  B606     1.0000 0.50000  0.61140  0.21490  Biso   1.000  B 
  B607     1.0000 0.50000  0.63260  0.07190  Biso   1.000  B 
  B608     1.0000 0.50000  0.57190  0.13260  Biso   1.000  B 
  C177     1.0000 0.51601  0.81937  0.12475  Biso   1.000  C 
  C178     1.0000 0.43096  0.80086  0.14755  Biso   1.000  C 
  C179     1.0000 0.55010  0.69646  0.37146  Biso   1.000  C 
  C180     1.0000 0.46161  0.67935  0.36086  Biso   1.000  C 
  H353     1.0000 0.41875  0.83365  0.16942  Biso   1.000  H 
  H354     1.0000 0.40697  0.76895  0.15514  Biso   1.000  H 
  C181     1.0000 0.43216  0.81228  0.09237  Biso   1.000  C 
  H355     1.0000 0.52349  0.85827  0.13938  Biso   1.000  H 
  C182     1.0000 0.48725  0.82359  0.07817  Biso   1.000  C 
  H356     1.0000 0.55119  0.80173  0.12072  Biso   1.000  H 
  H357     1.0000 0.49898  0.79477  0.05132  Biso   1.000  H 
  H358     1.0000 0.49260  0.86214  0.06172  Biso   1.000  H 
  H359     1.0000 0.41199  0.84555  0.08585  Biso   1.000  H 
  H360     1.0000 0.41536  0.77934  0.07172  Biso   1.000  H 
  H361     1.0000 0.45262  0.64947  0.33733  Biso   1.000  H 
  H362     1.0000 0.42769  0.70357  0.36642  Biso   1.000  H 
  C183     1.0000 0.47743  0.65612  0.41061  Biso   1.000  C 
  H363     1.0000 0.46288  0.61729  0.41486  Biso   1.000  H 
  H364     1.0000 0.46323  0.68042  0.43950  Biso   1.000  H 
  C184     1.0000 0.53314  0.65996  0.41462  Biso   1.000  C 
  H365     1.0000 0.56169  0.73055  0.38955  Biso   1.000  H 
  H366     1.0000 0.57952  0.68312  0.34619  Biso   1.000  H 
  H367     1.0000 0.55165  0.62216  0.41128  Biso   1.000  H 
  H368     1.0000 0.54447  0.67484  0.45097  Biso   1.000  H 
  B609     1.0000 0.50000  0.92810  0.63260  Biso   1.000  B 
  B610     1.0000 0.50000  0.88280  0.61720  Biso   1.000  B 
  B611     1.0000 0.50000  0.86740  0.57190  Biso   1.000  B 
  B612     1.0000 0.50000  0.84350  0.65650  Biso   1.000  B 
  B613     1.0000 0.50000  0.85530  0.70580  Biso   1.000  B 
  B614     1.0000 0.50000  0.79420  0.64470  Biso   1.000  B 
  B615     1.0000 0.50000  0.82050  0.74200  Biso   1.000  B 
  B616     1.0000 0.50000  0.88860  0.71490  Biso   1.000  B 
  B617     1.0000 0.50000  0.75800  0.67950  Biso   1.000  B 
  B618     1.0000 0.50000  0.78510  0.61140  Biso   1.000  B 
  B619     1.0000 0.50000  0.76930  0.73070  Biso   1.000  B 
  B620     1.0000 0.50000  0.73070  0.76930  Biso   1.000  B 
  B621     1.0000 0.50000  0.83050  0.77510  Biso   1.000  B 
  B622     1.0000 0.50000  0.74200  0.82050  Biso   1.000  B 
  N47      1.0000 0.49402  0.70533  0.65840  Biso   1.000  N 
  B623     1.0000 0.50000  0.67950  0.75800  Biso   1.000  B 
  B624     1.0000 0.50000  0.70580  0.85530  Biso   1.000  B 
  N48      1.0000 0.51639  0.79306  0.84157  Biso   1.000  N 
  B625     1.0000 0.50000  0.64470  0.79420  Biso   1.000  B 
  B626     1.0000 0.50000  0.66950  0.72490  Biso   1.000  B 
  B627     1.0000 0.50000  0.65650  0.84350  Biso   1.000  B 
  B628     1.0000 0.50000  0.61720  0.88280  Biso   1.000  B 
  B629     1.0000 0.50000  0.71490  0.88860  Biso   1.000  B 
  B630     1.0000 0.50000  0.61140  0.78510  Biso   1.000  B 
  B631     1.0000 0.50000  0.63260  0.92810  Biso   1.000  B 
  B632     1.0000 0.50000  0.57190  0.86740  Biso   1.000  B 
  C185     1.0000 0.48399  0.81937  0.87525  Biso   1.000  C 
  C186     1.0000 0.56904  0.80086  0.85245  Biso   1.000  C 
  C187     1.0000 0.44990  0.69646  0.62854  Biso   1.000  C 
  C188     1.0000 0.53839  0.67935  0.63914  Biso   1.000  C 
  H369     1.0000 0.58125  0.83365  0.83058  Biso   1.000  H 
  H370     1.0000 0.59303  0.76895  0.84485  Biso   1.000  H 
  C189     1.0000 0.56784  0.81228  0.90763  Biso   1.000  C 
  H371     1.0000 0.47651  0.85827  0.86062  Biso   1.000  H 
  C190     1.0000 0.51275  0.82359  0.92183  Biso   1.000  C 
  H372     1.0000 0.44881  0.80173  0.87928  Biso   1.000  H 
  H373     1.0000 0.50102  0.79477  0.94868  Biso   1.000  H 
  H374     1.0000 0.50740  0.86214  0.93828  Biso   1.000  H 
  H375     1.0000 0.58801  0.84555  0.91415  Biso   1.000  H 
  H376     1.0000 0.58464  0.77934  0.92828  Biso   1.000  H 
  H377     1.0000 0.54738  0.64947  0.66267  Biso   1.000  H 
  H378     1.0000 0.57231  0.70357  0.63358  Biso   1.000  H 
  C191     1.0000 0.52257  0.65612  0.58939  Biso   1.000  C 
  H379     1.0000 0.53712  0.61729  0.58514  Biso   1.000  H 
  H380     1.0000 0.53677  0.68042  0.56050  Biso   1.000  H 
  C192     1.0000 0.46686  0.65996  0.58538  Biso   1.000  C 
  H381     1.0000 0.43831  0.73055  0.61045  Biso   1.000  H 
  H382     1.0000 0.42048  0.68312  0.65381  Biso   1.000  H 
  H383     1.0000 0.44835  0.62216  0.58872  Biso   1.000  H 
  H384     1.0000 0.45553  0.67484  0.54903  Biso   1.000  H 
