data_image0
_cell_length_a       26.896
_cell_length_b       26.896
_cell_length_c       26.896
_cell_angle_alpha    90
_cell_angle_beta     90
_cell_angle_gamma    90

_symmetry_space_group_name_H-M    "P 1"
_symmetry_int_tables_number       1

loop_
  _symmetry_equiv_pos_as_xyz
  'x, y, z'

loop_
  _atom_site_label
  _atom_site_occupancy
  _atom_site_fract_x
  _atom_site_fract_y
  _atom_site_fract_z
  _atom_site_thermal_displace_type
  _atom_site_B_iso_or_equiv
  _atom_site_type_symbol
  B1       1.0000 0.09204  0.00000  0.00000  Biso   1.000  B 
  B2       1.0000 0.90796  0.00000  0.00000  Biso   1.000  B 
  B3       1.0000 0.00000  0.09204  0.00000  Biso   1.000  B 
  B4       1.0000 0.00000  0.90796  0.00000  Biso   1.000  B 
  B5       1.0000 0.00000  0.00000  0.09204  Biso   1.000  B 
  B6       1.0000 0.00000  0.00000  0.90796  Biso   1.000  B 
  B7       1.0000 0.09204  0.50000  0.50000  Biso   1.000  B 
  B8       1.0000 0.90796  0.50000  0.50000  Biso   1.000  B 
  B9       1.0000 0.00000  0.59204  0.50000  Biso   1.000  B 
  B10      1.0000 0.00000  0.40796  0.50000  Biso   1.000  B 
  B11      1.0000 0.00000  0.50000  0.59204  Biso   1.000  B 
  B12      1.0000 0.00000  0.50000  0.40796  Biso   1.000  B 
  B13      1.0000 0.59204  0.00000  0.50000  Biso   1.000  B 
  B14      1.0000 0.40796  0.00000  0.50000  Biso   1.000  B 
  B15      1.0000 0.50000  0.09204  0.50000  Biso   1.000  B 
  B16      1.0000 0.50000  0.90796  0.50000  Biso   1.000  B 
  B17      1.0000 0.50000  0.00000  0.59204  Biso   1.000  B 
  B18      1.0000 0.50000  0.00000  0.40796  Biso   1.000  B 
  B19      1.0000 0.59204  0.50000  0.00000  Biso   1.000  B 
  B20      1.0000 0.40796  0.50000  0.00000  Biso   1.000  B 
  B21      1.0000 0.50000  0.59204  0.00000  Biso   1.000  B 
  B22      1.0000 0.50000  0.40796  0.00000  Biso   1.000  B 
  B23      1.0000 0.50000  0.50000  0.09204  Biso   1.000  B 
  B24      1.0000 0.50000  0.50000  0.90796  Biso   1.000  B 
  B25      1.0000 0.04540  0.04540  0.04540  Biso   1.000  B 
  B26      1.0000 0.95460  0.95460  0.04540  Biso   1.000  B 
  B27      1.0000 0.95460  0.04540  0.95460  Biso   1.000  B 
  B28      1.0000 0.04540  0.95460  0.95460  Biso   1.000  B 
  B29      1.0000 0.04540  0.04540  0.95460  Biso   1.000  B 
  B30      1.0000 0.95460  0.95460  0.95460  Biso   1.000  B 
  B31      1.0000 0.04540  0.95460  0.04540  Biso   1.000  B 
  B32      1.0000 0.95460  0.04540  0.04540  Biso   1.000  B 
  B33      1.0000 0.04540  0.54540  0.54540  Biso   1.000  B 
  B34      1.0000 0.95460  0.45460  0.54540  Biso   1.000  B 
  B35      1.0000 0.95460  0.54540  0.45460  Biso   1.000  B 
  B36      1.0000 0.04540  0.45460  0.45460  Biso   1.000  B 
  B37      1.0000 0.04540  0.54540  0.45460  Biso   1.000  B 
  B38      1.0000 0.95460  0.45460  0.45460  Biso   1.000  B 
  B39      1.0000 0.04540  0.45460  0.54540  Biso   1.000  B 
  B40      1.0000 0.95460  0.54540  0.54540  Biso   1.000  B 
  B41      1.0000 0.54540  0.04540  0.54540  Biso   1.000  B 
  B42      1.0000 0.45460  0.95460  0.54540  Biso   1.000  B 
  B43      1.0000 0.45460  0.04540  0.45460  Biso   1.000  B 
  B44      1.0000 0.54540  0.95460  0.45460  Biso   1.000  B 
  B45      1.0000 0.54540  0.04540  0.45460  Biso   1.000  B 
  B46      1.0000 0.45460  0.95460  0.45460  Biso   1.000  B 
  B47      1.0000 0.54540  0.95460  0.54540  Biso   1.000  B 
  B48      1.0000 0.45460  0.04540  0.54540  Biso   1.000  B 
  B49      1.0000 0.54540  0.54540  0.04540  Biso   1.000  B 
  B50      1.0000 0.45460  0.45460  0.04540  Biso   1.000  B 
  B51      1.0000 0.45460  0.54540  0.95460  Biso   1.000  B 
  B52      1.0000 0.54540  0.45460  0.95460  Biso   1.000  B 
  B53      1.0000 0.54540  0.54540  0.95460  Biso   1.000  B 
  B54      1.0000 0.45460  0.45460  0.95460  Biso   1.000  B 
  B55      1.0000 0.54540  0.45460  0.04540  Biso   1.000  B 
  B56      1.0000 0.45460  0.54540  0.04540  Biso   1.000  B 
  B57      1.0000 0.13260  0.00000  0.07190  Biso   1.000  B 
  B58      1.0000 0.11720  0.00000  0.11720  Biso   1.000  B 
  B59      1.0000 0.07190  0.00000  0.13260  Biso   1.000  B 
  B60      1.0000 0.15650  0.00000  0.15650  Biso   1.000  B 
  B61      1.0000 0.20580  0.00000  0.14470  Biso   1.000  B 
  B62      1.0000 0.14470  0.00000  0.20580  Biso   1.000  B 
  B63      1.0000 0.24200  0.00000  0.17950  Biso   1.000  B 
  B64      1.0000 0.21490  0.00000  0.11140  Biso   1.000  B 
  B65      1.0000 0.17950  0.00000  0.24200  Biso   1.000  B 
  B66      1.0000 0.11140  0.00000  0.21490  Biso   1.000  B 
  B67      1.0000 0.23070  0.00000  0.23070  Biso   1.000  B 
  B68      1.0000 0.26930  0.00000  0.26930  Biso   1.000  B 
  B69      1.0000 0.27510  0.00000  0.16950  Biso   1.000  B 
  B70      1.0000 0.32050  0.00000  0.25800  Biso   1.000  B 
  B71      1.0000 0.16950  0.00000  0.27510  Biso   1.000  B 
  B72      1.0000 0.25800  0.00000  0.32050  Biso   1.000  B 
  B73      1.0000 0.35530  0.00000  0.29420  Biso   1.000  B 
  B74      1.0000 0.33050  0.00000  0.22490  Biso   1.000  B 
  B75      1.0000 0.29420  0.00000  0.35530  Biso   1.000  B 
  B76      1.0000 0.22490  0.00000  0.33050  Biso   1.000  B 
  B77      1.0000 0.34350  0.00000  0.34350  Biso   1.000  B 
  B78      1.0000 0.38280  0.00000  0.38280  Biso   1.000  B 
  O1       1.0000 0.40693  0.01040  0.28046  Biso   1.000  O 
  B79      1.0000 0.28510  0.00000  0.38860  Biso   1.000  B 
  B80      1.0000 0.42810  0.00000  0.36740  Biso   1.000  B 
  B81      1.0000 0.36740  0.00000  0.42810  Biso   1.000  B 
  C1       1.0000 0.41138  0.03241  0.23258  Biso   1.000  C 
  C2       1.0000 0.45832  0.05604  0.22196  Biso   1.000  C 
  H1       1.0000 0.38480  0.06516  0.22488  Biso   1.000  H 
  H2       1.0000 0.40885  0.00198  0.20502  Biso   1.000  H 
  H3       1.0000 0.45228  0.09440  0.23543  Biso   1.000  H 
  C3       1.0000 0.46946  0.06264  0.16663  Biso   1.000  C 
  H4       1.0000 0.48984  0.03750  0.24093  Biso   1.000  H 
  H5       1.0000 0.43464  0.08238  0.15251  Biso   1.000  H 
  H6       1.0000 0.47226  0.02572  0.14689  Biso   1.000  H 
  C4       1.0000 0.51461  0.09258  0.15348  Biso   1.000  C 
  H7       1.0000 0.50530  0.13122  0.14433  Biso   1.000  H 
  H8       1.0000 0.53356  0.07529  0.12243  Biso   1.000  H 
  H9       1.0000 0.54212  0.09469  0.18382  Biso   1.000  H 
  B82      1.0000 0.86740  0.00000  0.07190  Biso   1.000  B 
  B83      1.0000 0.88280  0.00000  0.11720  Biso   1.000  B 
  B84      1.0000 0.92810  0.00000  0.13260  Biso   1.000  B 
  B85      1.0000 0.84350  0.00000  0.15650  Biso   1.000  B 
  B86      1.0000 0.79420  0.00000  0.14470  Biso   1.000  B 
  B87      1.0000 0.85530  0.00000  0.20580  Biso   1.000  B 
  B88      1.0000 0.75800  0.00000  0.17950  Biso   1.000  B 
  B89      1.0000 0.78510  0.00000  0.11140  Biso   1.000  B 
  B90      1.0000 0.82050  0.00000  0.24200  Biso   1.000  B 
  B91      1.0000 0.88860  0.00000  0.21490  Biso   1.000  B 
  B92      1.0000 0.76930  0.00000  0.23070  Biso   1.000  B 
  B93      1.0000 0.73070  0.00000  0.26930  Biso   1.000  B 
  B94      1.0000 0.72490  0.00000  0.16950  Biso   1.000  B 
  B95      1.0000 0.67950  0.00000  0.25800  Biso   1.000  B 
  B96      1.0000 0.83050  0.00000  0.27510  Biso   1.000  B 
  B97      1.0000 0.74200  0.00000  0.32050  Biso   1.000  B 
  B98      1.0000 0.64470  0.00000  0.29420  Biso   1.000  B 
  B99      1.0000 0.66950  0.00000  0.22490  Biso   1.000  B 
  B100     1.0000 0.70580  0.00000  0.35530  Biso   1.000  B 
  B101     1.0000 0.77510  0.00000  0.33050  Biso   1.000  B 
  B102     1.0000 0.65650  0.00000  0.34350  Biso   1.000  B 
  B103     1.0000 0.61720  0.00000  0.38280  Biso   1.000  B 
  O2       1.0000 0.59307  0.98960  0.28046  Biso   1.000  O 
  B104     1.0000 0.71490  0.00000  0.38860  Biso   1.000  B 
  B105     1.0000 0.57190  0.00000  0.36740  Biso   1.000  B 
  B106     1.0000 0.63260  0.00000  0.42810  Biso   1.000  B 
  C5       1.0000 0.58862  0.96759  0.23258  Biso   1.000  C 
  C6       1.0000 0.54168  0.94396  0.22196  Biso   1.000  C 
  H10      1.0000 0.61520  0.93483  0.22488  Biso   1.000  H 
  H11      1.0000 0.59115  0.99802  0.20502  Biso   1.000  H 
  H12      1.0000 0.54772  0.90560  0.23543  Biso   1.000  H 
  C7       1.0000 0.53054  0.93736  0.16663  Biso   1.000  C 
  H13      1.0000 0.51016  0.96250  0.24093  Biso   1.000  H 
  H14      1.0000 0.56536  0.91762  0.15251  Biso   1.000  H 
  H15      1.0000 0.52774  0.97428  0.14689  Biso   1.000  H 
  C8       1.0000 0.48539  0.90742  0.15348  Biso   1.000  C 
  H16      1.0000 0.49470  0.86878  0.14433  Biso   1.000  H 
  H17      1.0000 0.46644  0.92471  0.12243  Biso   1.000  H 
  H18      1.0000 0.45788  0.90531  0.18382  Biso   1.000  H 
  B107     1.0000 0.86740  0.00000  0.92810  Biso   1.000  B 
  B108     1.0000 0.88280  0.00000  0.88280  Biso   1.000  B 
  B109     1.0000 0.92810  0.00000  0.86740  Biso   1.000  B 
  B110     1.0000 0.84350  0.00000  0.84350  Biso   1.000  B 
  B111     1.0000 0.79420  0.00000  0.85530  Biso   1.000  B 
  B112     1.0000 0.85530  0.00000  0.79420  Biso   1.000  B 
  B113     1.0000 0.75800  0.00000  0.82050  Biso   1.000  B 
  B114     1.0000 0.78510  0.00000  0.88860  Biso   1.000  B 
  B115     1.0000 0.82050  0.00000  0.75800  Biso   1.000  B 
  B116     1.0000 0.88860  0.00000  0.78510  Biso   1.000  B 
  B117     1.0000 0.76930  0.00000  0.76930  Biso   1.000  B 
  B118     1.0000 0.73070  0.00000  0.73070  Biso   1.000  B 
  B119     1.0000 0.72490  0.00000  0.83050  Biso   1.000  B 
  B120     1.0000 0.67950  0.00000  0.74200  Biso   1.000  B 
  B121     1.0000 0.83050  0.00000  0.72490  Biso   1.000  B 
  B122     1.0000 0.74200  0.00000  0.67950  Biso   1.000  B 
  B123     1.0000 0.64470  0.00000  0.70580  Biso   1.000  B 
  B124     1.0000 0.66950  0.00000  0.77510  Biso   1.000  B 
  B125     1.0000 0.70580  0.00000  0.64470  Biso   1.000  B 
  B126     1.0000 0.77510  0.00000  0.66950  Biso   1.000  B 
  B127     1.0000 0.65650  0.00000  0.65650  Biso   1.000  B 
  B128     1.0000 0.61720  0.00000  0.61720  Biso   1.000  B 
  O3       1.0000 0.59307  0.01040  0.71953  Biso   1.000  O 
  B129     1.0000 0.71490  0.00000  0.61140  Biso   1.000  B 
  B130     1.0000 0.57190  0.00000  0.63260  Biso   1.000  B 
  B131     1.0000 0.63260  0.00000  0.57190  Biso   1.000  B 
  C9       1.0000 0.58862  0.03241  0.76742  Biso   1.000  C 
  C10      1.0000 0.54168  0.05604  0.77803  Biso   1.000  C 
  H19      1.0000 0.61520  0.06516  0.77512  Biso   1.000  H 
  H20      1.0000 0.59115  0.00198  0.79497  Biso   1.000  H 
  H21      1.0000 0.54772  0.09440  0.76457  Biso   1.000  H 
  C11      1.0000 0.53054  0.06264  0.83337  Biso   1.000  C 
  H22      1.0000 0.51016  0.03750  0.75907  Biso   1.000  H 
  H23      1.0000 0.56536  0.08238  0.84749  Biso   1.000  H 
  H24      1.0000 0.52774  0.02572  0.85310  Biso   1.000  H 
  C12      1.0000 0.48539  0.09258  0.84652  Biso   1.000  C 
  H25      1.0000 0.49470  0.13122  0.85567  Biso   1.000  H 
  H26      1.0000 0.46644  0.07529  0.87757  Biso   1.000  H 
  H27      1.0000 0.45788  0.09469  0.81618  Biso   1.000  H 
  B132     1.0000 0.13260  0.00000  0.92810  Biso   1.000  B 
  B133     1.0000 0.11720  0.00000  0.88280  Biso   1.000  B 
  B134     1.0000 0.07190  0.00000  0.86740  Biso   1.000  B 
  B135     1.0000 0.15650  0.00000  0.84350  Biso   1.000  B 
  B136     1.0000 0.20580  0.00000  0.85530  Biso   1.000  B 
  B137     1.0000 0.14470  0.00000  0.79420  Biso   1.000  B 
  B138     1.0000 0.24200  0.00000  0.82050  Biso   1.000  B 
  B139     1.0000 0.21490  0.00000  0.88860  Biso   1.000  B 
  B140     1.0000 0.17950  0.00000  0.75800  Biso   1.000  B 
  B141     1.0000 0.11140  0.00000  0.78510  Biso   1.000  B 
  B142     1.0000 0.23070  0.00000  0.76930  Biso   1.000  B 
  B143     1.0000 0.26930  0.00000  0.73070  Biso   1.000  B 
  B144     1.0000 0.27510  0.00000  0.83050  Biso   1.000  B 
  B145     1.0000 0.32050  0.00000  0.74200  Biso   1.000  B 
  B146     1.0000 0.16950  0.00000  0.72490  Biso   1.000  B 
  B147     1.0000 0.25800  0.00000  0.67950  Biso   1.000  B 
  B148     1.0000 0.35530  0.00000  0.70580  Biso   1.000  B 
  B149     1.0000 0.33050  0.00000  0.77510  Biso   1.000  B 
  B150     1.0000 0.29420  0.00000  0.64470  Biso   1.000  B 
  B151     1.0000 0.22490  0.00000  0.66950  Biso   1.000  B 
  B152     1.0000 0.34350  0.00000  0.65650  Biso   1.000  B 
  B153     1.0000 0.38280  0.00000  0.61720  Biso   1.000  B 
  O4       1.0000 0.40693  0.98960  0.71953  Biso   1.000  O 
  B154     1.0000 0.28510  0.00000  0.61140  Biso   1.000  B 
  B155     1.0000 0.42810  0.00000  0.63260  Biso   1.000  B 
  B156     1.0000 0.36740  0.00000  0.57190  Biso   1.000  B 
  C13      1.0000 0.41138  0.96759  0.76742  Biso   1.000  C 
  C14      1.0000 0.45832  0.94396  0.77803  Biso   1.000  C 
  H28      1.0000 0.38480  0.93483  0.77512  Biso   1.000  H 
  H29      1.0000 0.40885  0.99802  0.79497  Biso   1.000  H 
  H30      1.0000 0.45228  0.90560  0.76457  Biso   1.000  H 
  C15      1.0000 0.46946  0.93736  0.83337  Biso   1.000  C 
  H31      1.0000 0.48984  0.96250  0.75907  Biso   1.000  H 
  H32      1.0000 0.43464  0.91762  0.84749  Biso   1.000  H 
  H33      1.0000 0.47226  0.97428  0.85310  Biso   1.000  H 
  C16      1.0000 0.51461  0.90742  0.84652  Biso   1.000  C 
  H34      1.0000 0.50530  0.86878  0.85567  Biso   1.000  H 
  H35      1.0000 0.53356  0.92471  0.87757  Biso   1.000  H 
  H36      1.0000 0.54212  0.90531  0.81618  Biso   1.000  H 
  B157     1.0000 0.07190  0.13260  0.00000  Biso   1.000  B 
  B158     1.0000 0.11720  0.11720  0.00000  Biso   1.000  B 
  B159     1.0000 0.13260  0.07190  0.00000  Biso   1.000  B 
  B160     1.0000 0.15650  0.15650  0.00000  Biso   1.000  B 
  B161     1.0000 0.14470  0.20580  0.00000  Biso   1.000  B 
  B162     1.0000 0.20580  0.14470  0.00000  Biso   1.000  B 
  B163     1.0000 0.17950  0.24200  0.00000  Biso   1.000  B 
  B164     1.0000 0.11140  0.21490  0.00000  Biso   1.000  B 
  B165     1.0000 0.24200  0.17950  0.00000  Biso   1.000  B 
  B166     1.0000 0.21490  0.11140  0.00000  Biso   1.000  B 
  B167     1.0000 0.23070  0.23070  0.00000  Biso   1.000  B 
  B168     1.0000 0.26930  0.26930  0.00000  Biso   1.000  B 
  B169     1.0000 0.16950  0.27510  0.00000  Biso   1.000  B 
  B170     1.0000 0.25800  0.32050  0.00000  Biso   1.000  B 
  B171     1.0000 0.27510  0.16950  0.00000  Biso   1.000  B 
  B172     1.0000 0.32050  0.25800  0.00000  Biso   1.000  B 
  B173     1.0000 0.29420  0.35530  0.00000  Biso   1.000  B 
  B174     1.0000 0.22490  0.33050  0.00000  Biso   1.000  B 
  B175     1.0000 0.35530  0.29420  0.00000  Biso   1.000  B 
  B176     1.0000 0.33050  0.22490  0.00000  Biso   1.000  B 
  B177     1.0000 0.34350  0.34350  0.00000  Biso   1.000  B 
  B178     1.0000 0.38280  0.38280  0.00000  Biso   1.000  B 
  O5       1.0000 0.27919  0.40786  0.01218  Biso   1.000  O 
  B179     1.0000 0.38860  0.28510  0.00000  Biso   1.000  B 
  B180     1.0000 0.36740  0.42810  0.00000  Biso   1.000  B 
  B181     1.0000 0.42810  0.36740  0.00000  Biso   1.000  B 
  C17      1.0000 0.22868  0.41418  0.02874  Biso   1.000  C 
  C18      1.0000 0.21824  0.46267  0.05735  Biso   1.000  C 
  H37      1.0000 0.21840  0.38559  0.05484  Biso   1.000  H 
  H38      1.0000 0.20416  0.41021  0.99586  Biso   1.000  H 
  H39      1.0000 0.22643  0.45379  0.09711  Biso   1.000  H 
  C19      1.0000 0.16286  0.47471  0.05841  Biso   1.000  C 
  H40      1.0000 0.23919  0.49463  0.04333  Biso   1.000  H 
  H41      1.0000 0.14866  0.44791  0.08623  Biso   1.000  H 
  H42      1.0000 0.14320  0.46738  0.02340  Biso   1.000  H 
  C20      1.0000 0.14661  0.52595  0.07874  Biso   1.000  C 
  H43      1.0000 0.15415  0.55578  0.05233  Biso   1.000  H 
  H44      1.0000 0.16447  0.53472  0.11469  Biso   1.000  H 
  H45      1.0000 0.10598  0.52374  0.08402  Biso   1.000  H 
  B182     1.0000 0.07190  0.86740  0.00000  Biso   1.000  B 
  B183     1.0000 0.11720  0.88280  0.00000  Biso   1.000  B 
  B184     1.0000 0.13260  0.92810  0.00000  Biso   1.000  B 
  B185     1.0000 0.15650  0.84350  0.00000  Biso   1.000  B 
  B186     1.0000 0.14470  0.79420  0.00000  Biso   1.000  B 
  B187     1.0000 0.20580  0.85530  0.00000  Biso   1.000  B 
  B188     1.0000 0.17950  0.75800  0.00000  Biso   1.000  B 
  B189     1.0000 0.11140  0.78510  0.00000  Biso   1.000  B 
  B190     1.0000 0.24200  0.82050  0.00000  Biso   1.000  B 
  B191     1.0000 0.21490  0.88860  0.00000  Biso   1.000  B 
  B192     1.0000 0.23070  0.76930  0.00000  Biso   1.000  B 
  B193     1.0000 0.26930  0.73070  0.00000  Biso   1.000  B 
  B194     1.0000 0.16950  0.72490  0.00000  Biso   1.000  B 
  B195     1.0000 0.25800  0.67950  0.00000  Biso   1.000  B 
  B196     1.0000 0.27510  0.83050  0.00000  Biso   1.000  B 
  B197     1.0000 0.32050  0.74200  0.00000  Biso   1.000  B 
  B198     1.0000 0.29420  0.64470  0.00000  Biso   1.000  B 
  B199     1.0000 0.22490  0.66950  0.00000  Biso   1.000  B 
  B200     1.0000 0.35530  0.70580  0.00000  Biso   1.000  B 
  B201     1.0000 0.33050  0.77510  0.00000  Biso   1.000  B 
  B202     1.0000 0.34350  0.65650  0.00000  Biso   1.000  B 
  B203     1.0000 0.38280  0.61720  0.00000  Biso   1.000  B 
  O6       1.0000 0.27919  0.59214  0.98782  Biso   1.000  O 
  B204     1.0000 0.38860  0.71490  0.00000  Biso   1.000  B 
  B205     1.0000 0.36740  0.57190  0.00000  Biso   1.000  B 
  B206     1.0000 0.42810  0.63260  0.00000  Biso   1.000  B 
  C21      1.0000 0.22868  0.58582  0.97126  Biso   1.000  C 
  C22      1.0000 0.21824  0.53733  0.94265  Biso   1.000  C 
  H46      1.0000 0.21840  0.61441  0.94516  Biso   1.000  H 
  H47      1.0000 0.20416  0.58979  0.00414  Biso   1.000  H 
  H48      1.0000 0.22643  0.54621  0.90289  Biso   1.000  H 
  C23      1.0000 0.16286  0.52529  0.94159  Biso   1.000  C 
  H49      1.0000 0.23919  0.50537  0.95667  Biso   1.000  H 
  H50      1.0000 0.14866  0.55209  0.91377  Biso   1.000  H 
  H51      1.0000 0.14320  0.53262  0.97660  Biso   1.000  H 
  C24      1.0000 0.14661  0.47405  0.92126  Biso   1.000  C 
  H52      1.0000 0.15415  0.44422  0.94767  Biso   1.000  H 
  H53      1.0000 0.16447  0.46528  0.88531  Biso   1.000  H 
  H54      1.0000 0.10598  0.47626  0.91598  Biso   1.000  H 
  B207     1.0000 0.92810  0.86740  0.00000  Biso   1.000  B 
  B208     1.0000 0.88280  0.88280  0.00000  Biso   1.000  B 
  B209     1.0000 0.86740  0.92810  0.00000  Biso   1.000  B 
  B210     1.0000 0.84350  0.84350  0.00000  Biso   1.000  B 
  B211     1.0000 0.85530  0.79420  0.00000  Biso   1.000  B 
  B212     1.0000 0.79420  0.85530  0.00000  Biso   1.000  B 
  B213     1.0000 0.82050  0.75800  0.00000  Biso   1.000  B 
  B214     1.0000 0.88860  0.78510  0.00000  Biso   1.000  B 
  B215     1.0000 0.75800  0.82050  0.00000  Biso   1.000  B 
  B216     1.0000 0.78510  0.88860  0.00000  Biso   1.000  B 
  B217     1.0000 0.76930  0.76930  0.00000  Biso   1.000  B 
  B218     1.0000 0.73070  0.73070  0.00000  Biso   1.000  B 
  B219     1.0000 0.83050  0.72490  0.00000  Biso   1.000  B 
  B220     1.0000 0.74200  0.67950  0.00000  Biso   1.000  B 
  B221     1.0000 0.72490  0.83050  0.00000  Biso   1.000  B 
  B222     1.0000 0.67950  0.74200  0.00000  Biso   1.000  B 
  B223     1.0000 0.70580  0.64470  0.00000  Biso   1.000  B 
  B224     1.0000 0.77510  0.66950  0.00000  Biso   1.000  B 
  B225     1.0000 0.64470  0.70580  0.00000  Biso   1.000  B 
  B226     1.0000 0.66950  0.77510  0.00000  Biso   1.000  B 
  B227     1.0000 0.65650  0.65650  0.00000  Biso   1.000  B 
  B228     1.0000 0.61720  0.61720  0.00000  Biso   1.000  B 
  O7       1.0000 0.72081  0.59214  0.01218  Biso   1.000  O 
  B229     1.0000 0.61140  0.71490  0.00000  Biso   1.000  B 
  B230     1.0000 0.63260  0.57190  0.00000  Biso   1.000  B 
  B231     1.0000 0.57190  0.63260  0.00000  Biso   1.000  B 
  C25      1.0000 0.77132  0.58582  0.02874  Biso   1.000  C 
  C26      1.0000 0.78176  0.53733  0.05735  Biso   1.000  C 
  H55      1.0000 0.78160  0.61441  0.05484  Biso   1.000  H 
  H56      1.0000 0.79584  0.58979  0.99586  Biso   1.000  H 
  H57      1.0000 0.77357  0.54621  0.09711  Biso   1.000  H 
  C27      1.0000 0.83714  0.52529  0.05841  Biso   1.000  C 
  H58      1.0000 0.76080  0.50537  0.04333  Biso   1.000  H 
  H59      1.0000 0.85134  0.55209  0.08623  Biso   1.000  H 
  H60      1.0000 0.85680  0.53262  0.02340  Biso   1.000  H 
  C28      1.0000 0.85339  0.47405  0.07874  Biso   1.000  C 
  H61      1.0000 0.84585  0.44422  0.05233  Biso   1.000  H 
  H62      1.0000 0.83553  0.46528  0.11469  Biso   1.000  H 
  H63      1.0000 0.89402  0.47626  0.08402  Biso   1.000  H 
  B232     1.0000 0.92810  0.13260  0.00000  Biso   1.000  B 
  B233     1.0000 0.88280  0.11720  0.00000  Biso   1.000  B 
  B234     1.0000 0.86740  0.07190  0.00000  Biso   1.000  B 
  B235     1.0000 0.84350  0.15650  0.00000  Biso   1.000  B 
  B236     1.0000 0.85530  0.20580  0.00000  Biso   1.000  B 
  B237     1.0000 0.79420  0.14470  0.00000  Biso   1.000  B 
  B238     1.0000 0.82050  0.24200  0.00000  Biso   1.000  B 
  B239     1.0000 0.88860  0.21490  0.00000  Biso   1.000  B 
  B240     1.0000 0.75800  0.17950  0.00000  Biso   1.000  B 
  B241     1.0000 0.78510  0.11140  0.00000  Biso   1.000  B 
  B242     1.0000 0.76930  0.23070  0.00000  Biso   1.000  B 
  B243     1.0000 0.73070  0.26930  0.00000  Biso   1.000  B 
  B244     1.0000 0.83050  0.27510  0.00000  Biso   1.000  B 
  B245     1.0000 0.74200  0.32050  0.00000  Biso   1.000  B 
  B246     1.0000 0.72490  0.16950  0.00000  Biso   1.000  B 
  B247     1.0000 0.67950  0.25800  0.00000  Biso   1.000  B 
  B248     1.0000 0.70580  0.35530  0.00000  Biso   1.000  B 
  B249     1.0000 0.77510  0.33050  0.00000  Biso   1.000  B 
  B250     1.0000 0.64470  0.29420  0.00000  Biso   1.000  B 
  B251     1.0000 0.66950  0.22490  0.00000  Biso   1.000  B 
  B252     1.0000 0.65650  0.34350  0.00000  Biso   1.000  B 
  B253     1.0000 0.61720  0.38280  0.00000  Biso   1.000  B 
  O8       1.0000 0.72081  0.40786  0.98782  Biso   1.000  O 
  B254     1.0000 0.61140  0.28510  0.00000  Biso   1.000  B 
  B255     1.0000 0.63260  0.42810  0.00000  Biso   1.000  B 
  B256     1.0000 0.57190  0.36740  0.00000  Biso   1.000  B 
  C29      1.0000 0.77132  0.41418  0.97126  Biso   1.000  C 
  C30      1.0000 0.78176  0.46267  0.94265  Biso   1.000  C 
  H64      1.0000 0.78160  0.38559  0.94516  Biso   1.000  H 
  H65      1.0000 0.79584  0.41021  0.00414  Biso   1.000  H 
  H66      1.0000 0.77357  0.45379  0.90289  Biso   1.000  H 
  C31      1.0000 0.83714  0.47471  0.94159  Biso   1.000  C 
  H67      1.0000 0.76080  0.49463  0.95667  Biso   1.000  H 
  H68      1.0000 0.85134  0.44791  0.91377  Biso   1.000  H 
  H69      1.0000 0.85680  0.46738  0.97660  Biso   1.000  H 
  C32      1.0000 0.85339  0.52595  0.92126  Biso   1.000  C 
  H70      1.0000 0.84585  0.55578  0.94767  Biso   1.000  H 
  H71      1.0000 0.83553  0.53472  0.88531  Biso   1.000  H 
  H72      1.0000 0.89402  0.52374  0.91598  Biso   1.000  H 
  B257     1.0000 0.00000  0.07190  0.13260  Biso   1.000  B 
  B258     1.0000 0.00000  0.11720  0.11720  Biso   1.000  B 
  B259     1.0000 0.00000  0.13260  0.07190  Biso   1.000  B 
  B260     1.0000 0.00000  0.15650  0.15650  Biso   1.000  B 
  B261     1.0000 0.00000  0.14470  0.20580  Biso   1.000  B 
  B262     1.0000 0.00000  0.20580  0.14470  Biso   1.000  B 
  B263     1.0000 0.00000  0.17950  0.24200  Biso   1.000  B 
  B264     1.0000 0.00000  0.11140  0.21490  Biso   1.000  B 
  B265     1.0000 0.00000  0.24200  0.17950  Biso   1.000  B 
  B266     1.0000 0.00000  0.21490  0.11140  Biso   1.000  B 
  B267     1.0000 0.00000  0.23070  0.23070  Biso   1.000  B 
  B268     1.0000 0.00000  0.26930  0.26930  Biso   1.000  B 
  B269     1.0000 0.00000  0.16950  0.27510  Biso   1.000  B 
  B270     1.0000 0.00000  0.25800  0.32050  Biso   1.000  B 
  B271     1.0000 0.00000  0.27510  0.16950  Biso   1.000  B 
  B272     1.0000 0.00000  0.32050  0.25800  Biso   1.000  B 
  B273     1.0000 0.00000  0.29420  0.35530  Biso   1.000  B 
  B274     1.0000 0.00000  0.22490  0.33050  Biso   1.000  B 
  B275     1.0000 0.00000  0.35530  0.29420  Biso   1.000  B 
  B276     1.0000 0.00000  0.33050  0.22490  Biso   1.000  B 
  B277     1.0000 0.00000  0.34350  0.34350  Biso   1.000  B 
  B278     1.0000 0.00000  0.38280  0.38280  Biso   1.000  B 
  O9       1.0000 0.01637  0.28210  0.40686  Biso   1.000  O 
  B279     1.0000 0.00000  0.38860  0.28510  Biso   1.000  B 
  B280     1.0000 0.00000  0.36740  0.42810  Biso   1.000  B 
  B281     1.0000 0.00000  0.42810  0.36740  Biso   1.000  B 
  C33      1.0000 0.02462  0.23256  0.42213  Biso   1.000  C 
  C34      1.0000 0.97321  0.20961  0.42907  Biso   1.000  C 
  H73      1.0000 0.04752  0.22991  0.45676  Biso   1.000  H 
  H74      1.0000 0.04687  0.21739  0.39165  Biso   1.000  H 
  H75      1.0000 0.96319  0.21477  0.46901  Biso   1.000  H 
  C35      1.0000 0.97448  0.15348  0.41966  Biso   1.000  C 
  H76      1.0000 0.94860  0.22965  0.40482  Biso   1.000  H 
  H77      1.0000 0.97699  0.13252  0.45609  Biso   1.000  H 
  H78      1.0000 0.00771  0.14506  0.39569  Biso   1.000  H 
  C36      1.0000 0.92895  0.13597  0.38831  Biso   1.000  C 
  H79      1.0000 0.94503  0.12886  0.35101  Biso   1.000  H 
  H80      1.0000 0.89825  0.16367  0.38453  Biso   1.000  H 
  H81      1.0000 0.91327  0.10057  0.40319  Biso   1.000  H 
  B282     1.0000 0.00000  0.07190  0.86740  Biso   1.000  B 
  B283     1.0000 0.00000  0.11720  0.88280  Biso   1.000  B 
  B284     1.0000 0.00000  0.13260  0.92810  Biso   1.000  B 
  B285     1.0000 0.00000  0.15650  0.84350  Biso   1.000  B 
  B286     1.0000 0.00000  0.14470  0.79420  Biso   1.000  B 
  B287     1.0000 0.00000  0.20580  0.85530  Biso   1.000  B 
  B288     1.0000 0.00000  0.17950  0.75800  Biso   1.000  B 
  B289     1.0000 0.00000  0.11140  0.78510  Biso   1.000  B 
  B290     1.0000 0.00000  0.24200  0.82050  Biso   1.000  B 
  B291     1.0000 0.00000  0.21490  0.88860  Biso   1.000  B 
  B292     1.0000 0.00000  0.23070  0.76930  Biso   1.000  B 
  B293     1.0000 0.00000  0.26930  0.73070  Biso   1.000  B 
  B294     1.0000 0.00000  0.16950  0.72490  Biso   1.000  B 
  B295     1.0000 0.00000  0.25800  0.67950  Biso   1.000  B 
  B296     1.0000 0.00000  0.27510  0.83050  Biso   1.000  B 
  B297     1.0000 0.00000  0.32050  0.74200  Biso   1.000  B 
  B298     1.0000 0.00000  0.29420  0.64470  Biso   1.000  B 
  B299     1.0000 0.00000  0.22490  0.66950  Biso   1.000  B 
  B300     1.0000 0.00000  0.35530  0.70580  Biso   1.000  B 
  B301     1.0000 0.00000  0.33050  0.77510  Biso   1.000  B 
  B302     1.0000 0.00000  0.34350  0.65650  Biso   1.000  B 
  B303     1.0000 0.00000  0.38280  0.61720  Biso   1.000  B 
  O10      1.0000 0.98363  0.28210  0.59314  Biso   1.000  O 
  B304     1.0000 0.00000  0.38860  0.71490  Biso   1.000  B 
  B305     1.0000 0.00000  0.36740  0.57190  Biso   1.000  B 
  B306     1.0000 0.00000  0.42810  0.63260  Biso   1.000  B 
  C37      1.0000 0.97538  0.23256  0.57787  Biso   1.000  C 
  C38      1.0000 0.02679  0.20961  0.57093  Biso   1.000  C 
  H82      1.0000 0.95248  0.22991  0.54324  Biso   1.000  H 
  H83      1.0000 0.95313  0.21739  0.60835  Biso   1.000  H 
  H84      1.0000 0.03681  0.21477  0.53099  Biso   1.000  H 
  C39      1.0000 0.02552  0.15348  0.58034  Biso   1.000  C 
  H85      1.0000 0.05140  0.22965  0.59518  Biso   1.000  H 
  H86      1.0000 0.02301  0.13252  0.54391  Biso   1.000  H 
  H87      1.0000 0.99229  0.14506  0.60431  Biso   1.000  H 
  C40      1.0000 0.07105  0.13597  0.61169  Biso   1.000  C 
  H88      1.0000 0.05497  0.12886  0.64899  Biso   1.000  H 
  H89      1.0000 0.10175  0.16367  0.61547  Biso   1.000  H 
  H90      1.0000 0.08673  0.10057  0.59681  Biso   1.000  H 
  B307     1.0000 0.00000  0.92810  0.86740  Biso   1.000  B 
  B308     1.0000 0.00000  0.88280  0.88280  Biso   1.000  B 
  B309     1.0000 0.00000  0.86740  0.92810  Biso   1.000  B 
  B310     1.0000 0.00000  0.84350  0.84350  Biso   1.000  B 
  B311     1.0000 0.00000  0.85530  0.79420  Biso   1.000  B 
  B312     1.0000 0.00000  0.79420  0.85530  Biso   1.000  B 
  B313     1.0000 0.00000  0.82050  0.75800  Biso   1.000  B 
  B314     1.0000 0.00000  0.88860  0.78510  Biso   1.000  B 
  B315     1.0000 0.00000  0.75800  0.82050  Biso   1.000  B 
  B316     1.0000 0.00000  0.78510  0.88860  Biso   1.000  B 
  B317     1.0000 0.00000  0.76930  0.76930  Biso   1.000  B 
  B318     1.0000 0.00000  0.73070  0.73070  Biso   1.000  B 
  B319     1.0000 0.00000  0.83050  0.72490  Biso   1.000  B 
  B320     1.0000 0.00000  0.74200  0.67950  Biso   1.000  B 
  B321     1.0000 0.00000  0.72490  0.83050  Biso   1.000  B 
  B322     1.0000 0.00000  0.67950  0.74200  Biso   1.000  B 
  B323     1.0000 0.00000  0.70580  0.64470  Biso   1.000  B 
  B324     1.0000 0.00000  0.77510  0.66950  Biso   1.000  B 
  B325     1.0000 0.00000  0.64470  0.70580  Biso   1.000  B 
  B326     1.0000 0.00000  0.66950  0.77510  Biso   1.000  B 
  B327     1.0000 0.00000  0.65650  0.65650  Biso   1.000  B 
  B328     1.0000 0.00000  0.61720  0.61720  Biso   1.000  B 
  O11      1.0000 0.01637  0.71789  0.59314  Biso   1.000  O 
  B329     1.0000 0.00000  0.61140  0.71490  Biso   1.000  B 
  B330     1.0000 0.00000  0.63260  0.57190  Biso   1.000  B 
  B331     1.0000 0.00000  0.57190  0.63260  Biso   1.000  B 
  C41      1.0000 0.02462  0.76744  0.57787  Biso   1.000  C 
  C42      1.0000 0.97321  0.79039  0.57093  Biso   1.000  C 
  H91      1.0000 0.04752  0.77009  0.54324  Biso   1.000  H 
  H92      1.0000 0.04687  0.78261  0.60835  Biso   1.000  H 
  H93      1.0000 0.96319  0.78522  0.53099  Biso   1.000  H 
  C43      1.0000 0.97448  0.84652  0.58034  Biso   1.000  C 
  H94      1.0000 0.94860  0.77035  0.59518  Biso   1.000  H 
  H95      1.0000 0.97699  0.86748  0.54391  Biso   1.000  H 
  H96      1.0000 0.00771  0.85494  0.60431  Biso   1.000  H 
  C44      1.0000 0.92895  0.86403  0.61169  Biso   1.000  C 
  H97      1.0000 0.94503  0.87114  0.64899  Biso   1.000  H 
  H98      1.0000 0.89825  0.83633  0.61547  Biso   1.000  H 
  H99      1.0000 0.91327  0.89943  0.59681  Biso   1.000  H 
  B332     1.0000 0.00000  0.92810  0.13260  Biso   1.000  B 
  B333     1.0000 0.00000  0.88280  0.11720  Biso   1.000  B 
  B334     1.0000 0.00000  0.86740  0.07190  Biso   1.000  B 
  B335     1.0000 0.00000  0.84350  0.15650  Biso   1.000  B 
  B336     1.0000 0.00000  0.85530  0.20580  Biso   1.000  B 
  B337     1.0000 0.00000  0.79420  0.14470  Biso   1.000  B 
  B338     1.0000 0.00000  0.82050  0.24200  Biso   1.000  B 
  B339     1.0000 0.00000  0.88860  0.21490  Biso   1.000  B 
  B340     1.0000 0.00000  0.75800  0.17950  Biso   1.000  B 
  B341     1.0000 0.00000  0.78510  0.11140  Biso   1.000  B 
  B342     1.0000 0.00000  0.76930  0.23070  Biso   1.000  B 
  B343     1.0000 0.00000  0.73070  0.26930  Biso   1.000  B 
  B344     1.0000 0.00000  0.83050  0.27510  Biso   1.000  B 
  B345     1.0000 0.00000  0.74200  0.32050  Biso   1.000  B 
  B346     1.0000 0.00000  0.72490  0.16950  Biso   1.000  B 
  B347     1.0000 0.00000  0.67950  0.25800  Biso   1.000  B 
  B348     1.0000 0.00000  0.70580  0.35530  Biso   1.000  B 
  B349     1.0000 0.00000  0.77510  0.33050  Biso   1.000  B 
  B350     1.0000 0.00000  0.64470  0.29420  Biso   1.000  B 
  B351     1.0000 0.00000  0.66950  0.22490  Biso   1.000  B 
  B352     1.0000 0.00000  0.65650  0.34350  Biso   1.000  B 
  B353     1.0000 0.00000  0.61720  0.38280  Biso   1.000  B 
  O12      1.0000 0.98363  0.71789  0.40686  Biso   1.000  O 
  B354     1.0000 0.00000  0.61140  0.28510  Biso   1.000  B 
  B355     1.0000 0.00000  0.63260  0.42810  Biso   1.000  B 
  B356     1.0000 0.00000  0.57190  0.36740  Biso   1.000  B 
  C45      1.0000 0.97538  0.76744  0.42213  Biso   1.000  C 
  C46      1.0000 0.02679  0.79039  0.42907  Biso   1.000  C 
  H100     1.0000 0.95248  0.77009  0.45676  Biso   1.000  H 
  H101     1.0000 0.95313  0.78261  0.39165  Biso   1.000  H 
  H102     1.0000 0.03681  0.78522  0.46901  Biso   1.000  H 
  C47      1.0000 0.02552  0.84652  0.41966  Biso   1.000  C 
  H103     1.0000 0.05140  0.77035  0.40482  Biso   1.000  H 
  H104     1.0000 0.02301  0.86748  0.45609  Biso   1.000  H 
  H105     1.0000 0.99229  0.85494  0.39569  Biso   1.000  H 
  C48      1.0000 0.07105  0.86403  0.38831  Biso   1.000  C 
  H106     1.0000 0.05497  0.87114  0.35101  Biso   1.000  H 
  H107     1.0000 0.10175  0.83633  0.38453  Biso   1.000  H 
  H108     1.0000 0.08673  0.89943  0.40319  Biso   1.000  H 
  B357     1.0000 0.13260  0.50000  0.57190  Biso   1.000  B 
  B358     1.0000 0.11720  0.50000  0.61720  Biso   1.000  B 
  B359     1.0000 0.07190  0.50000  0.63260  Biso   1.000  B 
  B360     1.0000 0.15650  0.50000  0.65650  Biso   1.000  B 
  B361     1.0000 0.20580  0.50000  0.64470  Biso   1.000  B 
  B362     1.0000 0.14470  0.50000  0.70580  Biso   1.000  B 
  B363     1.0000 0.24200  0.50000  0.67950  Biso   1.000  B 
  B364     1.0000 0.21490  0.50000  0.61140  Biso   1.000  B 
  B365     1.0000 0.17950  0.50000  0.74200  Biso   1.000  B 
  B366     1.0000 0.11140  0.50000  0.71490  Biso   1.000  B 
  B367     1.0000 0.23070  0.50000  0.73070  Biso   1.000  B 
  B368     1.0000 0.26930  0.50000  0.76930  Biso   1.000  B 
  B369     1.0000 0.27510  0.50000  0.66950  Biso   1.000  B 
  B370     1.0000 0.32050  0.50000  0.75800  Biso   1.000  B 
  B371     1.0000 0.16950  0.50000  0.77510  Biso   1.000  B 
  B372     1.0000 0.25800  0.50000  0.82050  Biso   1.000  B 
  B373     1.0000 0.35530  0.50000  0.79420  Biso   1.000  B 
  B374     1.0000 0.33050  0.50000  0.72490  Biso   1.000  B 
  B375     1.0000 0.29420  0.50000  0.85530  Biso   1.000  B 
  B376     1.0000 0.22490  0.50000  0.83050  Biso   1.000  B 
  B377     1.0000 0.34350  0.50000  0.84350  Biso   1.000  B 
  B378     1.0000 0.38280  0.50000  0.88280  Biso   1.000  B 
  O13      1.0000 0.40822  0.51197  0.77897  Biso   1.000  O 
  B379     1.0000 0.28510  0.50000  0.88860  Biso   1.000  B 
  B380     1.0000 0.42810  0.50000  0.86740  Biso   1.000  B 
  B381     1.0000 0.36740  0.50000  0.92810  Biso   1.000  B 
  C49      1.0000 0.41394  0.53157  0.72923  Biso   1.000  C 
  C50      1.0000 0.46359  0.55763  0.71690  Biso   1.000  C 
  H109     1.0000 0.38591  0.55837  0.71902  Biso   1.000  H 
  H110     1.0000 0.41003  0.49942  0.70339  Biso   1.000  H 
  H111     1.0000 0.45706  0.59720  0.72578  Biso   1.000  H 
  C51      1.0000 0.47419  0.56020  0.66122  Biso   1.000  C 
  H112     1.0000 0.49613  0.54269  0.73665  Biso   1.000  H 
  H113     1.0000 0.44186  0.58034  0.64530  Biso   1.000  H 
  H114     1.0000 0.47146  0.52282  0.64661  Biso   1.000  H 
  C52      1.0000 0.52217  0.58629  0.64353  Biso   1.000  C 
  H115     1.0000 0.55389  0.56285  0.65580  Biso   1.000  H 
  H116     1.0000 0.52555  0.62352  0.66014  Biso   1.000  H 
  H117     1.0000 0.52268  0.58935  0.60271  Biso   1.000  H 
  B382     1.0000 0.86740  0.50000  0.57190  Biso   1.000  B 
  B383     1.0000 0.88280  0.50000  0.61720  Biso   1.000  B 
  B384     1.0000 0.92810  0.50000  0.63260  Biso   1.000  B 
  B385     1.0000 0.84350  0.50000  0.65650  Biso   1.000  B 
  B386     1.0000 0.79420  0.50000  0.64470  Biso   1.000  B 
  B387     1.0000 0.85530  0.50000  0.70580  Biso   1.000  B 
  B388     1.0000 0.75800  0.50000  0.67950  Biso   1.000  B 
  B389     1.0000 0.78510  0.50000  0.61140  Biso   1.000  B 
  B390     1.0000 0.82050  0.50000  0.74200  Biso   1.000  B 
  B391     1.0000 0.88860  0.50000  0.71490  Biso   1.000  B 
  B392     1.0000 0.76930  0.50000  0.73070  Biso   1.000  B 
  B393     1.0000 0.73070  0.50000  0.76930  Biso   1.000  B 
  B394     1.0000 0.72490  0.50000  0.66950  Biso   1.000  B 
  B395     1.0000 0.67950  0.50000  0.75800  Biso   1.000  B 
  B396     1.0000 0.83050  0.50000  0.77510  Biso   1.000  B 
  B397     1.0000 0.74200  0.50000  0.82050  Biso   1.000  B 
  B398     1.0000 0.64470  0.50000  0.79420  Biso   1.000  B 
  B399     1.0000 0.66950  0.50000  0.72490  Biso   1.000  B 
  B400     1.0000 0.70580  0.50000  0.85530  Biso   1.000  B 
  B401     1.0000 0.77510  0.50000  0.83050  Biso   1.000  B 
  B402     1.0000 0.65650  0.50000  0.84350  Biso   1.000  B 
  B403     1.0000 0.61720  0.50000  0.88280  Biso   1.000  B 
  O14      1.0000 0.59178  0.48803  0.77897  Biso   1.000  O 
  B404     1.0000 0.71490  0.50000  0.88860  Biso   1.000  B 
  B405     1.0000 0.57190  0.50000  0.86740  Biso   1.000  B 
  B406     1.0000 0.63260  0.50000  0.92810  Biso   1.000  B 
  C53      1.0000 0.58606  0.46843  0.72923  Biso   1.000  C 
  C54      1.0000 0.53641  0.44237  0.71690  Biso   1.000  C 
  H118     1.0000 0.61409  0.44163  0.71902  Biso   1.000  H 
  H119     1.0000 0.58997  0.50058  0.70339  Biso   1.000  H 
  H120     1.0000 0.54294  0.40280  0.72578  Biso   1.000  H 
  C55      1.0000 0.52581  0.43980  0.66122  Biso   1.000  C 
  H121     1.0000 0.50387  0.45731  0.73665  Biso   1.000  H 
  H122     1.0000 0.55814  0.41966  0.64530  Biso   1.000  H 
  H123     1.0000 0.52854  0.47718  0.64661  Biso   1.000  H 
  C56      1.0000 0.47783  0.41371  0.64353  Biso   1.000  C 
  H124     1.0000 0.44611  0.43715  0.65580  Biso   1.000  H 
  H125     1.0000 0.47445  0.37648  0.66014  Biso   1.000  H 
  H126     1.0000 0.47732  0.41065  0.60271  Biso   1.000  H 
  B407     1.0000 0.86740  0.50000  0.42810  Biso   1.000  B 
  B408     1.0000 0.88280  0.50000  0.38280  Biso   1.000  B 
  B409     1.0000 0.92810  0.50000  0.36740  Biso   1.000  B 
  B410     1.0000 0.84350  0.50000  0.34350  Biso   1.000  B 
  B411     1.0000 0.79420  0.50000  0.35530  Biso   1.000  B 
  B412     1.0000 0.85530  0.50000  0.29420  Biso   1.000  B 
  B413     1.0000 0.75800  0.50000  0.32050  Biso   1.000  B 
  B414     1.0000 0.78510  0.50000  0.38860  Biso   1.000  B 
  B415     1.0000 0.82050  0.50000  0.25800  Biso   1.000  B 
  B416     1.0000 0.88860  0.50000  0.28510  Biso   1.000  B 
  B417     1.0000 0.76930  0.50000  0.26930  Biso   1.000  B 
  B418     1.0000 0.73070  0.50000  0.23070  Biso   1.000  B 
  B419     1.0000 0.72490  0.50000  0.33050  Biso   1.000  B 
  B420     1.0000 0.67950  0.50000  0.24200  Biso   1.000  B 
  B421     1.0000 0.83050  0.50000  0.22490  Biso   1.000  B 
  B422     1.0000 0.74200  0.50000  0.17950  Biso   1.000  B 
  B423     1.0000 0.64470  0.50000  0.20580  Biso   1.000  B 
  B424     1.0000 0.66950  0.50000  0.27510  Biso   1.000  B 
  B425     1.0000 0.70580  0.50000  0.14470  Biso   1.000  B 
  B426     1.0000 0.77510  0.50000  0.16950  Biso   1.000  B 
  B427     1.0000 0.65650  0.50000  0.15650  Biso   1.000  B 
  B428     1.0000 0.61720  0.50000  0.11720  Biso   1.000  B 
  O15      1.0000 0.59178  0.51197  0.22103  Biso   1.000  O 
  B429     1.0000 0.71490  0.50000  0.11140  Biso   1.000  B 
  B430     1.0000 0.57190  0.50000  0.13260  Biso   1.000  B 
  B431     1.0000 0.63260  0.50000  0.07190  Biso   1.000  B 
  C57      1.0000 0.58606  0.53157  0.27077  Biso   1.000  C 
  C58      1.0000 0.53641  0.55763  0.28310  Biso   1.000  C 
  H127     1.0000 0.61409  0.55837  0.28098  Biso   1.000  H 
  H128     1.0000 0.58997  0.49942  0.29661  Biso   1.000  H 
  H129     1.0000 0.54294  0.59720  0.27422  Biso   1.000  H 
  C59      1.0000 0.52581  0.56020  0.33878  Biso   1.000  C 
  H130     1.0000 0.50387  0.54269  0.26335  Biso   1.000  H 
  H131     1.0000 0.55814  0.58034  0.35470  Biso   1.000  H 
  H132     1.0000 0.52854  0.52282  0.35339  Biso   1.000  H 
  C60      1.0000 0.47783  0.58629  0.35647  Biso   1.000  C 
  H133     1.0000 0.44611  0.56285  0.34420  Biso   1.000  H 
  H134     1.0000 0.47445  0.62352  0.33986  Biso   1.000  H 
  H135     1.0000 0.47732  0.58935  0.39729  Biso   1.000  H 
  B432     1.0000 0.13260  0.50000  0.42810  Biso   1.000  B 
  B433     1.0000 0.11720  0.50000  0.38280  Biso   1.000  B 
  B434     1.0000 0.07190  0.50000  0.36740  Biso   1.000  B 
  B435     1.0000 0.15650  0.50000  0.34350  Biso   1.000  B 
  B436     1.0000 0.20580  0.50000  0.35530  Biso   1.000  B 
  B437     1.0000 0.14470  0.50000  0.29420  Biso   1.000  B 
  B438     1.0000 0.24200  0.50000  0.32050  Biso   1.000  B 
  B439     1.0000 0.21490  0.50000  0.38860  Biso   1.000  B 
  B440     1.0000 0.17950  0.50000  0.25800  Biso   1.000  B 
  B441     1.0000 0.11140  0.50000  0.28510  Biso   1.000  B 
  B442     1.0000 0.23070  0.50000  0.26930  Biso   1.000  B 
  B443     1.0000 0.26930  0.50000  0.23070  Biso   1.000  B 
  B444     1.0000 0.27510  0.50000  0.33050  Biso   1.000  B 
  B445     1.0000 0.32050  0.50000  0.24200  Biso   1.000  B 
  B446     1.0000 0.16950  0.50000  0.22490  Biso   1.000  B 
  B447     1.0000 0.25800  0.50000  0.17950  Biso   1.000  B 
  B448     1.0000 0.35530  0.50000  0.20580  Biso   1.000  B 
  B449     1.0000 0.33050  0.50000  0.27510  Biso   1.000  B 
  B450     1.0000 0.29420  0.50000  0.14470  Biso   1.000  B 
  B451     1.0000 0.22490  0.50000  0.16950  Biso   1.000  B 
  B452     1.0000 0.34350  0.50000  0.15650  Biso   1.000  B 
  B453     1.0000 0.38280  0.50000  0.11720  Biso   1.000  B 
  O16      1.0000 0.40822  0.48803  0.22103  Biso   1.000  O 
  B454     1.0000 0.28510  0.50000  0.11140  Biso   1.000  B 
  B455     1.0000 0.42810  0.50000  0.13260  Biso   1.000  B 
  B456     1.0000 0.36740  0.50000  0.07190  Biso   1.000  B 
  C61      1.0000 0.41394  0.46843  0.27077  Biso   1.000  C 
  C62      1.0000 0.46359  0.44237  0.28310  Biso   1.000  C 
  H136     1.0000 0.38591  0.44163  0.28098  Biso   1.000  H 
  H137     1.0000 0.41003  0.50058  0.29661  Biso   1.000  H 
  H138     1.0000 0.45706  0.40280  0.27422  Biso   1.000  H 
  C63      1.0000 0.47419  0.43980  0.33878  Biso   1.000  C 
  H139     1.0000 0.49613  0.45731  0.26335  Biso   1.000  H 
  H140     1.0000 0.44186  0.41966  0.35470  Biso   1.000  H 
  H141     1.0000 0.47146  0.47718  0.35339  Biso   1.000  H 
  C64      1.0000 0.52217  0.41371  0.35647  Biso   1.000  C 
  H142     1.0000 0.55389  0.43715  0.34420  Biso   1.000  H 
  H143     1.0000 0.52555  0.37648  0.33986  Biso   1.000  H 
  H144     1.0000 0.52268  0.41065  0.39729  Biso   1.000  H 
  B457     1.0000 0.07190  0.63260  0.50000  Biso   1.000  B 
  B458     1.0000 0.11720  0.61720  0.50000  Biso   1.000  B 
  B459     1.0000 0.13260  0.57190  0.50000  Biso   1.000  B 
  B460     1.0000 0.15650  0.65650  0.50000  Biso   1.000  B 
  B461     1.0000 0.14470  0.70580  0.50000  Biso   1.000  B 
  B462     1.0000 0.20580  0.64470  0.50000  Biso   1.000  B 
  B463     1.0000 0.17950  0.74200  0.50000  Biso   1.000  B 
  B464     1.0000 0.11140  0.71490  0.50000  Biso   1.000  B 
  B465     1.0000 0.24200  0.67950  0.50000  Biso   1.000  B 
  B466     1.0000 0.21490  0.61140  0.50000  Biso   1.000  B 
  B467     1.0000 0.23070  0.73070  0.50000  Biso   1.000  B 
  B468     1.0000 0.26930  0.76930  0.50000  Biso   1.000  B 
  B469     1.0000 0.16950  0.77510  0.50000  Biso   1.000  B 
  B470     1.0000 0.25800  0.82050  0.50000  Biso   1.000  B 
  B471     1.0000 0.27510  0.66950  0.50000  Biso   1.000  B 
  B472     1.0000 0.32050  0.75800  0.50000  Biso   1.000  B 
  B473     1.0000 0.29420  0.85530  0.50000  Biso   1.000  B 
  B474     1.0000 0.22490  0.83050  0.50000  Biso   1.000  B 
  B475     1.0000 0.35530  0.79420  0.50000  Biso   1.000  B 
  B476     1.0000 0.33050  0.72490  0.50000  Biso   1.000  B 
  B477     1.0000 0.34350  0.84350  0.50000  Biso   1.000  B 
  B478     1.0000 0.38280  0.88280  0.50000  Biso   1.000  B 
  O17      1.0000 0.27825  0.90526  0.52030  Biso   1.000  O 
  B479     1.0000 0.38860  0.78510  0.50000  Biso   1.000  B 
  B480     1.0000 0.36740  0.92810  0.50000  Biso   1.000  B 
  B481     1.0000 0.42810  0.86740  0.50000  Biso   1.000  B 
  C65      1.0000 0.22605  0.90597  0.53574  Biso   1.000  C 
  C66      1.0000 0.20812  0.95281  0.56297  Biso   1.000  C 
  H145     1.0000 0.21718  0.87612  0.56386  Biso   1.000  H 
  H146     1.0000 0.20288  0.90270  0.50197  Biso   1.000  H 
  H147     1.0000 0.21916  0.95152  0.60149  Biso   1.000  H 
  C67      1.0000 0.14950  0.95383  0.56424  Biso   1.000  C 
  H148     1.0000 0.22227  0.98650  0.54381  Biso   1.000  H 
  H149     1.0000 0.13727  0.91653  0.57773  Biso   1.000  H 
  H150     1.0000 0.13419  0.95932  0.52639  Biso   1.000  H 
  C68      1.0000 0.12652  0.99299  0.59924  Biso   1.000  C 
  H151     1.0000 0.12976  0.03091  0.58227  Biso   1.000  H 
  H152     1.0000 0.14434  0.99409  0.63662  Biso   1.000  H 
  H153     1.0000 0.08707  0.98324  0.60474  Biso   1.000  H 
  B482     1.0000 0.07190  0.36740  0.50000  Biso   1.000  B 
  B483     1.0000 0.11720  0.38280  0.50000  Biso   1.000  B 
  B484     1.0000 0.13260  0.42810  0.50000  Biso   1.000  B 
  B485     1.0000 0.15650  0.34350  0.50000  Biso   1.000  B 
  B486     1.0000 0.14470  0.29420  0.50000  Biso   1.000  B 
  B487     1.0000 0.20580  0.35530  0.50000  Biso   1.000  B 
  B488     1.0000 0.17950  0.25800  0.50000  Biso   1.000  B 
  B489     1.0000 0.11140  0.28510  0.50000  Biso   1.000  B 
  B490     1.0000 0.24200  0.32050  0.50000  Biso   1.000  B 
  B491     1.0000 0.21490  0.38860  0.50000  Biso   1.000  B 
  B492     1.0000 0.23070  0.26930  0.50000  Biso   1.000  B 
  B493     1.0000 0.26930  0.23070  0.50000  Biso   1.000  B 
  B494     1.0000 0.16950  0.22490  0.50000  Biso   1.000  B 
  B495     1.0000 0.25800  0.17950  0.50000  Biso   1.000  B 
  B496     1.0000 0.27510  0.33050  0.50000  Biso   1.000  B 
  B497     1.0000 0.32050  0.24200  0.50000  Biso   1.000  B 
  B498     1.0000 0.29420  0.14470  0.50000  Biso   1.000  B 
  B499     1.0000 0.22490  0.16950  0.50000  Biso   1.000  B 
  B500     1.0000 0.35530  0.20580  0.50000  Biso   1.000  B 
  B501     1.0000 0.33050  0.27510  0.50000  Biso   1.000  B 
  B502     1.0000 0.34350  0.15650  0.50000  Biso   1.000  B 
  B503     1.0000 0.38280  0.11720  0.50000  Biso   1.000  B 
  O18      1.0000 0.27825  0.09474  0.47970  Biso   1.000  O 
  B504     1.0000 0.38860  0.21490  0.50000  Biso   1.000  B 
  B505     1.0000 0.36740  0.07190  0.50000  Biso   1.000  B 
  B506     1.0000 0.42810  0.13260  0.50000  Biso   1.000  B 
  C69      1.0000 0.22605  0.09402  0.46426  Biso   1.000  C 
  C70      1.0000 0.20812  0.04718  0.43703  Biso   1.000  C 
  H154     1.0000 0.21718  0.12388  0.43614  Biso   1.000  H 
  H155     1.0000 0.20288  0.09730  0.49803  Biso   1.000  H 
  H156     1.0000 0.21916  0.04848  0.39851  Biso   1.000  H 
  C71      1.0000 0.14950  0.04617  0.43576  Biso   1.000  C 
  H157     1.0000 0.22227  0.01350  0.45619  Biso   1.000  H 
  H158     1.0000 0.13727  0.08347  0.42227  Biso   1.000  H 
  H159     1.0000 0.13419  0.04067  0.47361  Biso   1.000  H 
  C72      1.0000 0.12652  0.00701  0.40076  Biso   1.000  C 
  H160     1.0000 0.12976  0.96910  0.41773  Biso   1.000  H 
  H161     1.0000 0.14434  0.00591  0.36338  Biso   1.000  H 
  H162     1.0000 0.08707  0.01677  0.39526  Biso   1.000  H 
  B507     1.0000 0.92810  0.36740  0.50000  Biso   1.000  B 
  B508     1.0000 0.88280  0.38280  0.50000  Biso   1.000  B 
  B509     1.0000 0.86740  0.42810  0.50000  Biso   1.000  B 
  B510     1.0000 0.84350  0.34350  0.50000  Biso   1.000  B 
  B511     1.0000 0.85530  0.29420  0.50000  Biso   1.000  B 
  B512     1.0000 0.79420  0.35530  0.50000  Biso   1.000  B 
  B513     1.0000 0.82050  0.25800  0.50000  Biso   1.000  B 
  B514     1.0000 0.88860  0.28510  0.50000  Biso   1.000  B 
  B515     1.0000 0.75800  0.32050  0.50000  Biso   1.000  B 
  B516     1.0000 0.78510  0.38860  0.50000  Biso   1.000  B 
  B517     1.0000 0.76930  0.26930  0.50000  Biso   1.000  B 
  B518     1.0000 0.73070  0.23070  0.50000  Biso   1.000  B 
  B519     1.0000 0.83050  0.22490  0.50000  Biso   1.000  B 
  B520     1.0000 0.74200  0.17950  0.50000  Biso   1.000  B 
  B521     1.0000 0.72490  0.33050  0.50000  Biso   1.000  B 
  B522     1.0000 0.67950  0.24200  0.50000  Biso   1.000  B 
  B523     1.0000 0.70580  0.14470  0.50000  Biso   1.000  B 
  B524     1.0000 0.77510  0.16950  0.50000  Biso   1.000  B 
  B525     1.0000 0.64470  0.20580  0.50000  Biso   1.000  B 
  B526     1.0000 0.66950  0.27510  0.50000  Biso   1.000  B 
  B527     1.0000 0.65650  0.15650  0.50000  Biso   1.000  B 
  B528     1.0000 0.61720  0.11720  0.50000  Biso   1.000  B 
  O19      1.0000 0.72175  0.09474  0.52030  Biso   1.000  O 
  B529     1.0000 0.61140  0.21490  0.50000  Biso   1.000  B 
  B530     1.0000 0.63260  0.07190  0.50000  Biso   1.000  B 
  B531     1.0000 0.57190  0.13260  0.50000  Biso   1.000  B 
  C73      1.0000 0.77395  0.09402  0.53574  Biso   1.000  C 
  C74      1.0000 0.79188  0.04718  0.56297  Biso   1.000  C 
  H163     1.0000 0.78282  0.12388  0.56386  Biso   1.000  H 
  H164     1.0000 0.79712  0.09730  0.50197  Biso   1.000  H 
  H165     1.0000 0.78084  0.04848  0.60149  Biso   1.000  H 
  C75      1.0000 0.85051  0.04617  0.56424  Biso   1.000  C 
  H166     1.0000 0.77773  0.01350  0.54381  Biso   1.000  H 
  H167     1.0000 0.86273  0.08347  0.57773  Biso   1.000  H 
  H168     1.0000 0.86581  0.04067  0.52639  Biso   1.000  H 
  C76      1.0000 0.87348  0.00701  0.59924  Biso   1.000  C 
  H169     1.0000 0.87024  0.96910  0.58227  Biso   1.000  H 
  H170     1.0000 0.85566  0.00591  0.63662  Biso   1.000  H 
  H171     1.0000 0.91293  0.01677  0.60474  Biso   1.000  H 
  B532     1.0000 0.92810  0.63260  0.50000  Biso   1.000  B 
  B533     1.0000 0.88280  0.61720  0.50000  Biso   1.000  B 
  B534     1.0000 0.86740  0.57190  0.50000  Biso   1.000  B 
  B535     1.0000 0.84350  0.65650  0.50000  Biso   1.000  B 
  B536     1.0000 0.85530  0.70580  0.50000  Biso   1.000  B 
  B537     1.0000 0.79420  0.64470  0.50000  Biso   1.000  B 
  B538     1.0000 0.82050  0.74200  0.50000  Biso   1.000  B 
  B539     1.0000 0.88860  0.71490  0.50000  Biso   1.000  B 
  B540     1.0000 0.75800  0.67950  0.50000  Biso   1.000  B 
  B541     1.0000 0.78510  0.61140  0.50000  Biso   1.000  B 
  B542     1.0000 0.76930  0.73070  0.50000  Biso   1.000  B 
  B543     1.0000 0.73070  0.76930  0.50000  Biso   1.000  B 
  B544     1.0000 0.83050  0.77510  0.50000  Biso   1.000  B 
  B545     1.0000 0.74200  0.82050  0.50000  Biso   1.000  B 
  B546     1.0000 0.72490  0.66950  0.50000  Biso   1.000  B 
  B547     1.0000 0.67950  0.75800  0.50000  Biso   1.000  B 
  B548     1.0000 0.70580  0.85530  0.50000  Biso   1.000  B 
  B549     1.0000 0.77510  0.83050  0.50000  Biso   1.000  B 
  B550     1.0000 0.64470  0.79420  0.50000  Biso   1.000  B 
  B551     1.0000 0.66950  0.72490  0.50000  Biso   1.000  B 
  B552     1.0000 0.65650  0.84350  0.50000  Biso   1.000  B 
  B553     1.0000 0.61720  0.88280  0.50000  Biso   1.000  B 
  O20      1.0000 0.72175  0.90526  0.47970  Biso   1.000  O 
  B554     1.0000 0.61140  0.78510  0.50000  Biso   1.000  B 
  B555     1.0000 0.63260  0.92810  0.50000  Biso   1.000  B 
  B556     1.0000 0.57190  0.86740  0.50000  Biso   1.000  B 
  C77      1.0000 0.77395  0.90597  0.46426  Biso   1.000  C 
  C78      1.0000 0.79188  0.95281  0.43703  Biso   1.000  C 
  H172     1.0000 0.78282  0.87612  0.43614  Biso   1.000  H 
  H173     1.0000 0.79712  0.90270  0.49803  Biso   1.000  H 
  H174     1.0000 0.78084  0.95152  0.39851  Biso   1.000  H 
  C79      1.0000 0.85051  0.95383  0.43576  Biso   1.000  C 
  H175     1.0000 0.77773  0.98650  0.45619  Biso   1.000  H 
  H176     1.0000 0.86273  0.91653  0.42227  Biso   1.000  H 
  H177     1.0000 0.86581  0.95932  0.47361  Biso   1.000  H 
  C80      1.0000 0.87348  0.99299  0.40076  Biso   1.000  C 
  H178     1.0000 0.87024  0.03091  0.41773  Biso   1.000  H 
  H179     1.0000 0.85566  0.99409  0.36338  Biso   1.000  H 
  H180     1.0000 0.91293  0.98324  0.39526  Biso   1.000  H 
  B557     1.0000 0.50000  0.07190  0.63260  Biso   1.000  B 
  B558     1.0000 0.50000  0.11720  0.61720  Biso   1.000  B 
  B559     1.0000 0.50000  0.13260  0.57190  Biso   1.000  B 
  B560     1.0000 0.50000  0.15650  0.65650  Biso   1.000  B 
  B561     1.0000 0.50000  0.14470  0.70580  Biso   1.000  B 
  B562     1.0000 0.50000  0.20580  0.64470  Biso   1.000  B 
  B563     1.0000 0.50000  0.17950  0.74200  Biso   1.000  B 
  B564     1.0000 0.50000  0.11140  0.71490  Biso   1.000  B 
  B565     1.0000 0.50000  0.24200  0.67950  Biso   1.000  B 
  B566     1.0000 0.50000  0.21490  0.61140  Biso   1.000  B 
  B567     1.0000 0.50000  0.23070  0.73070  Biso   1.000  B 
  B568     1.0000 0.50000  0.26930  0.76930  Biso   1.000  B 
  B569     1.0000 0.50000  0.16950  0.77510  Biso   1.000  B 
  B570     1.0000 0.50000  0.25800  0.82050  Biso   1.000  B 
  B571     1.0000 0.50000  0.27510  0.66950  Biso   1.000  B 
  B572     1.0000 0.50000  0.32050  0.75800  Biso   1.000  B 
  B573     1.0000 0.50000  0.29420  0.85530  Biso   1.000  B 
  B574     1.0000 0.50000  0.22490  0.83050  Biso   1.000  B 
  B575     1.0000 0.50000  0.35530  0.79420  Biso   1.000  B 
  B576     1.0000 0.50000  0.33050  0.72490  Biso   1.000  B 
  B577     1.0000 0.50000  0.34350  0.84350  Biso   1.000  B 
  B578     1.0000 0.50000  0.38280  0.88280  Biso   1.000  B 
  O21      1.0000 0.51243  0.28024  0.90796  Biso   1.000  O 
  B579     1.0000 0.50000  0.38860  0.78510  Biso   1.000  B 
  B580     1.0000 0.50000  0.36740  0.92810  Biso   1.000  B 
  B581     1.0000 0.50000  0.42810  0.86740  Biso   1.000  B 
  C81      1.0000 0.52111  0.22803  0.91523  Biso   1.000  C 
  C82      1.0000 0.55948  0.21694  0.95426  Biso   1.000  C 
  H181     1.0000 0.54075  0.20764  0.88545  Biso   1.000  H 
  H182     1.0000 0.48564  0.21068  0.92473  Biso   1.000  H 
  H183     1.0000 0.59723  0.22863  0.94394  Biso   1.000  H 
  C83      1.0000 0.56009  0.15995  0.96094  Biso   1.000  C 
  H184     1.0000 0.54740  0.23611  0.98884  Biso   1.000  H 
  H185     1.0000 0.57803  0.14163  0.92796  Biso   1.000  H 
  H186     1.0000 0.52187  0.14432  0.96679  Biso   1.000  H 
  C84      1.0000 0.58929  0.14441  0.00693  Biso   1.000  C 
  H187     1.0000 0.57849  0.16780  0.03896  Biso   1.000  H 
  H188     1.0000 0.62916  0.14956  0.00089  Biso   1.000  H 
  H189     1.0000 0.58203  0.10525  0.01727  Biso   1.000  H 
  B582     1.0000 0.50000  0.07190  0.36740  Biso   1.000  B 
  B583     1.0000 0.50000  0.11720  0.38280  Biso   1.000  B 
  B584     1.0000 0.50000  0.13260  0.42810  Biso   1.000  B 
  B585     1.0000 0.50000  0.15650  0.34350  Biso   1.000  B 
  B586     1.0000 0.50000  0.14470  0.29420  Biso   1.000  B 
  B587     1.0000 0.50000  0.20580  0.35530  Biso   1.000  B 
  B588     1.0000 0.50000  0.17950  0.25800  Biso   1.000  B 
  B589     1.0000 0.50000  0.11140  0.28510  Biso   1.000  B 
  B590     1.0000 0.50000  0.24200  0.32050  Biso   1.000  B 
  B591     1.0000 0.50000  0.21490  0.38860  Biso   1.000  B 
  B592     1.0000 0.50000  0.23070  0.26930  Biso   1.000  B 
  B593     1.0000 0.50000  0.26930  0.23070  Biso   1.000  B 
  B594     1.0000 0.50000  0.16950  0.22490  Biso   1.000  B 
  B595     1.0000 0.50000  0.25800  0.17950  Biso   1.000  B 
  B596     1.0000 0.50000  0.27510  0.33050  Biso   1.000  B 
  B597     1.0000 0.50000  0.32050  0.24200  Biso   1.000  B 
  B598     1.0000 0.50000  0.29420  0.14470  Biso   1.000  B 
  B599     1.0000 0.50000  0.22490  0.16950  Biso   1.000  B 
  B600     1.0000 0.50000  0.35530  0.20580  Biso   1.000  B 
  B601     1.0000 0.50000  0.33050  0.27510  Biso   1.000  B 
  B602     1.0000 0.50000  0.34350  0.15650  Biso   1.000  B 
  B603     1.0000 0.50000  0.38280  0.11720  Biso   1.000  B 
  O22      1.0000 0.48757  0.28024  0.09204  Biso   1.000  O 
  B604     1.0000 0.50000  0.38860  0.21490  Biso   1.000  B 
  B605     1.0000 0.50000  0.36740  0.07190  Biso   1.000  B 
  B606     1.0000 0.50000  0.42810  0.13260  Biso   1.000  B 
  C85      1.0000 0.47889  0.22803  0.08477  Biso   1.000  C 
  C86      1.0000 0.44052  0.21694  0.04574  Biso   1.000  C 
  H190     1.0000 0.45925  0.20764  0.11455  Biso   1.000  H 
  H191     1.0000 0.51436  0.21068  0.07527  Biso   1.000  H 
  H192     1.0000 0.40277  0.22863  0.05606  Biso   1.000  H 
  C87      1.0000 0.43991  0.15995  0.03906  Biso   1.000  C 
  H193     1.0000 0.45260  0.23611  0.01116  Biso   1.000  H 
  H194     1.0000 0.42197  0.14163  0.07204  Biso   1.000  H 
  H195     1.0000 0.47813  0.14432  0.03321  Biso   1.000  H 
  C88      1.0000 0.41071  0.14441  0.99307  Biso   1.000  C 
  H196     1.0000 0.42151  0.16780  0.96104  Biso   1.000  H 
  H197     1.0000 0.37084  0.14956  0.99911  Biso   1.000  H 
  H198     1.0000 0.41797  0.10525  0.98273  Biso   1.000  H 
  B607     1.0000 0.50000  0.92810  0.36740  Biso   1.000  B 
  B608     1.0000 0.50000  0.88280  0.38280  Biso   1.000  B 
  B609     1.0000 0.50000  0.86740  0.42810  Biso   1.000  B 
  B610     1.0000 0.50000  0.84350  0.34350  Biso   1.000  B 
  B611     1.0000 0.50000  0.85530  0.29420  Biso   1.000  B 
  B612     1.0000 0.50000  0.79420  0.35530  Biso   1.000  B 
  B613     1.0000 0.50000  0.82050  0.25800  Biso   1.000  B 
  B614     1.0000 0.50000  0.88860  0.28510  Biso   1.000  B 
  B615     1.0000 0.50000  0.75800  0.32050  Biso   1.000  B 
  B616     1.0000 0.50000  0.78510  0.38860  Biso   1.000  B 
  B617     1.0000 0.50000  0.76930  0.26930  Biso   1.000  B 
  B618     1.0000 0.50000  0.73070  0.23070  Biso   1.000  B 
  B619     1.0000 0.50000  0.83050  0.22490  Biso   1.000  B 
  B620     1.0000 0.50000  0.74200  0.17950  Biso   1.000  B 
  B621     1.0000 0.50000  0.72490  0.33050  Biso   1.000  B 
  B622     1.0000 0.50000  0.67950  0.24200  Biso   1.000  B 
  B623     1.0000 0.50000  0.70580  0.14470  Biso   1.000  B 
  B624     1.0000 0.50000  0.77510  0.16950  Biso   1.000  B 
  B625     1.0000 0.50000  0.64470  0.20580  Biso   1.000  B 
  B626     1.0000 0.50000  0.66950  0.27510  Biso   1.000  B 
  B627     1.0000 0.50000  0.65650  0.15650  Biso   1.000  B 
  B628     1.0000 0.50000  0.61720  0.11720  Biso   1.000  B 
  O23      1.0000 0.51243  0.71976  0.09204  Biso   1.000  O 
  B629     1.0000 0.50000  0.61140  0.21490  Biso   1.000  B 
  B630     1.0000 0.50000  0.63260  0.07190  Biso   1.000  B 
  B631     1.0000 0.50000  0.57190  0.13260  Biso   1.000  B 
  C89      1.0000 0.52111  0.77197  0.08477  Biso   1.000  C 
  C90      1.0000 0.55948  0.78306  0.04574  Biso   1.000  C 
  H199     1.0000 0.54075  0.79236  0.11455  Biso   1.000  H 
  H200     1.0000 0.48564  0.78932  0.07527  Biso   1.000  H 
  H201     1.0000 0.59723  0.77137  0.05606  Biso   1.000  H 
  C91      1.0000 0.56009  0.84005  0.03906  Biso   1.000  C 
  H202     1.0000 0.54740  0.76389  0.01116  Biso   1.000  H 
  H203     1.0000 0.57803  0.85837  0.07204  Biso   1.000  H 
  H204     1.0000 0.52187  0.85568  0.03321  Biso   1.000  H 
  C92      1.0000 0.58929  0.85559  0.99307  Biso   1.000  C 
  H205     1.0000 0.57849  0.83220  0.96104  Biso   1.000  H 
  H206     1.0000 0.62916  0.85044  0.99911  Biso   1.000  H 
  H207     1.0000 0.58203  0.89475  0.98273  Biso   1.000  H 
  B632     1.0000 0.50000  0.92810  0.63260  Biso   1.000  B 
  B633     1.0000 0.50000  0.88280  0.61720  Biso   1.000  B 
  B634     1.0000 0.50000  0.86740  0.57190  Biso   1.000  B 
  B635     1.0000 0.50000  0.84350  0.65650  Biso   1.000  B 
  B636     1.0000 0.50000  0.85530  0.70580  Biso   1.000  B 
  B637     1.0000 0.50000  0.79420  0.64470  Biso   1.000  B 
  B638     1.0000 0.50000  0.82050  0.74200  Biso   1.000  B 
  B639     1.0000 0.50000  0.88860  0.71490  Biso   1.000  B 
  B640     1.0000 0.50000  0.75800  0.67950  Biso   1.000  B 
  B641     1.0000 0.50000  0.78510  0.61140  Biso   1.000  B 
  B642     1.0000 0.50000  0.76930  0.73070  Biso   1.000  B 
  B643     1.0000 0.50000  0.73070  0.76930  Biso   1.000  B 
  B644     1.0000 0.50000  0.83050  0.77510  Biso   1.000  B 
  B645     1.0000 0.50000  0.74200  0.82050  Biso   1.000  B 
  B646     1.0000 0.50000  0.72490  0.66950  Biso   1.000  B 
  B647     1.0000 0.50000  0.67950  0.75800  Biso   1.000  B 
  B648     1.0000 0.50000  0.70580  0.85530  Biso   1.000  B 
  B649     1.0000 0.50000  0.77510  0.83050  Biso   1.000  B 
  B650     1.0000 0.50000  0.64470  0.79420  Biso   1.000  B 
  B651     1.0000 0.50000  0.66950  0.72490  Biso   1.000  B 
  B652     1.0000 0.50000  0.65650  0.84350  Biso   1.000  B 
  B653     1.0000 0.50000  0.61720  0.88280  Biso   1.000  B 
  O24      1.0000 0.48757  0.71976  0.90796  Biso   1.000  O 
  B654     1.0000 0.50000  0.61140  0.78510  Biso   1.000  B 
  B655     1.0000 0.50000  0.63260  0.92810  Biso   1.000  B 
  B656     1.0000 0.50000  0.57190  0.86740  Biso   1.000  B 
  C93      1.0000 0.47889  0.77197  0.91523  Biso   1.000  C 
  C94      1.0000 0.44052  0.78306  0.95426  Biso   1.000  C 
  H208     1.0000 0.45925  0.79236  0.88545  Biso   1.000  H 
  H209     1.0000 0.51436  0.78932  0.92473  Biso   1.000  H 
  H210     1.0000 0.40277  0.77137  0.94394  Biso   1.000  H 
  C95      1.0000 0.43991  0.84005  0.96094  Biso   1.000  C 
  H211     1.0000 0.45260  0.76389  0.98884  Biso   1.000  H 
  H212     1.0000 0.42197  0.85837  0.92796  Biso   1.000  H 
  H213     1.0000 0.47813  0.85568  0.96679  Biso   1.000  H 
  C96      1.0000 0.41071  0.85559  0.00693  Biso   1.000  C 
  H214     1.0000 0.42151  0.83220  0.03896  Biso   1.000  H 
  H215     1.0000 0.37084  0.85044  0.00089  Biso   1.000  H 
  H216     1.0000 0.41797  0.89475  0.01727  Biso   1.000  H 
