data_image0
_cell_length_a       26.896
_cell_length_b       26.896
_cell_length_c       26.896
_cell_angle_alpha    90
_cell_angle_beta     90
_cell_angle_gamma    90

_symmetry_space_group_name_H-M    "P 1"
_symmetry_int_tables_number       1

loop_
  _symmetry_equiv_pos_as_xyz
  'x, y, z'

loop_
  _atom_site_label
  _atom_site_occupancy
  _atom_site_fract_x
  _atom_site_fract_y
  _atom_site_fract_z
  _atom_site_thermal_displace_type
  _atom_site_B_iso_or_equiv
  _atom_site_type_symbol
  B1       1.0000 0.09204  0.00000  0.00000  Biso   1.000  B 
  B2       1.0000 0.90796  0.00000  0.00000  Biso   1.000  B 
  B3       1.0000 0.00000  0.09204  0.00000  Biso   1.000  B 
  B4       1.0000 0.00000  0.90796  0.00000  Biso   1.000  B 
  B5       1.0000 0.00000  0.00000  0.09204  Biso   1.000  B 
  B6       1.0000 0.00000  0.00000  0.90796  Biso   1.000  B 
  B7       1.0000 0.09204  0.50000  0.50000  Biso   1.000  B 
  B8       1.0000 0.90796  0.50000  0.50000  Biso   1.000  B 
  B9       1.0000 0.00000  0.59204  0.50000  Biso   1.000  B 
  B10      1.0000 0.00000  0.40796  0.50000  Biso   1.000  B 
  B11      1.0000 0.00000  0.50000  0.59204  Biso   1.000  B 
  B12      1.0000 0.00000  0.50000  0.40796  Biso   1.000  B 
  B13      1.0000 0.59204  0.00000  0.50000  Biso   1.000  B 
  B14      1.0000 0.40796  0.00000  0.50000  Biso   1.000  B 
  B15      1.0000 0.50000  0.09204  0.50000  Biso   1.000  B 
  B16      1.0000 0.50000  0.90796  0.50000  Biso   1.000  B 
  B17      1.0000 0.50000  0.00000  0.59204  Biso   1.000  B 
  B18      1.0000 0.50000  0.00000  0.40796  Biso   1.000  B 
  B19      1.0000 0.59204  0.50000  0.00000  Biso   1.000  B 
  B20      1.0000 0.40796  0.50000  0.00000  Biso   1.000  B 
  B21      1.0000 0.50000  0.59204  0.00000  Biso   1.000  B 
  B22      1.0000 0.50000  0.40796  0.00000  Biso   1.000  B 
  B23      1.0000 0.50000  0.50000  0.09204  Biso   1.000  B 
  B24      1.0000 0.50000  0.50000  0.90796  Biso   1.000  B 
  B25      1.0000 0.04540  0.04540  0.04540  Biso   1.000  B 
  B26      1.0000 0.95460  0.95460  0.04540  Biso   1.000  B 
  B27      1.0000 0.95460  0.04540  0.95460  Biso   1.000  B 
  B28      1.0000 0.04540  0.95460  0.95460  Biso   1.000  B 
  B29      1.0000 0.04540  0.04540  0.95460  Biso   1.000  B 
  B30      1.0000 0.95460  0.95460  0.95460  Biso   1.000  B 
  B31      1.0000 0.04540  0.95460  0.04540  Biso   1.000  B 
  B32      1.0000 0.95460  0.04540  0.04540  Biso   1.000  B 
  B33      1.0000 0.04540  0.54540  0.54540  Biso   1.000  B 
  B34      1.0000 0.95460  0.45460  0.54540  Biso   1.000  B 
  B35      1.0000 0.95460  0.54540  0.45460  Biso   1.000  B 
  B36      1.0000 0.04540  0.45460  0.45460  Biso   1.000  B 
  B37      1.0000 0.04540  0.54540  0.45460  Biso   1.000  B 
  B38      1.0000 0.95460  0.45460  0.45460  Biso   1.000  B 
  B39      1.0000 0.04540  0.45460  0.54540  Biso   1.000  B 
  B40      1.0000 0.95460  0.54540  0.54540  Biso   1.000  B 
  B41      1.0000 0.54540  0.04540  0.54540  Biso   1.000  B 
  B42      1.0000 0.45460  0.95460  0.54540  Biso   1.000  B 
  B43      1.0000 0.45460  0.04540  0.45460  Biso   1.000  B 
  B44      1.0000 0.54540  0.95460  0.45460  Biso   1.000  B 
  B45      1.0000 0.54540  0.04540  0.45460  Biso   1.000  B 
  B46      1.0000 0.45460  0.95460  0.45460  Biso   1.000  B 
  B47      1.0000 0.54540  0.95460  0.54540  Biso   1.000  B 
  B48      1.0000 0.45460  0.04540  0.54540  Biso   1.000  B 
  B49      1.0000 0.54540  0.54540  0.04540  Biso   1.000  B 
  B50      1.0000 0.45460  0.45460  0.04540  Biso   1.000  B 
  B51      1.0000 0.45460  0.54540  0.95460  Biso   1.000  B 
  B52      1.0000 0.54540  0.45460  0.95460  Biso   1.000  B 
  B53      1.0000 0.54540  0.54540  0.95460  Biso   1.000  B 
  B54      1.0000 0.45460  0.45460  0.95460  Biso   1.000  B 
  B55      1.0000 0.54540  0.45460  0.04540  Biso   1.000  B 
  B56      1.0000 0.45460  0.54540  0.04540  Biso   1.000  B 
  B57      1.0000 0.13260  0.00000  0.07190  Biso   1.000  B 
  B58      1.0000 0.11720  0.00000  0.11720  Biso   1.000  B 
  B59      1.0000 0.07190  0.00000  0.13260  Biso   1.000  B 
  B60      1.0000 0.15650  0.00000  0.15650  Biso   1.000  B 
  B61      1.0000 0.20580  0.00000  0.14470  Biso   1.000  B 
  B62      1.0000 0.14470  0.00000  0.20580  Biso   1.000  B 
  B63      1.0000 0.24200  0.00000  0.17950  Biso   1.000  B 
  B64      1.0000 0.21490  0.00000  0.11140  Biso   1.000  B 
  B65      1.0000 0.17950  0.00000  0.24200  Biso   1.000  B 
  B66      1.0000 0.11140  0.00000  0.21490  Biso   1.000  B 
  B67      1.0000 0.23070  0.00000  0.23070  Biso   1.000  B 
  B68      1.0000 0.26930  0.00000  0.26930  Biso   1.000  B 
  B69      1.0000 0.27510  0.00000  0.16950  Biso   1.000  B 
  B70      1.0000 0.32050  0.00000  0.25800  Biso   1.000  B 
  N1       1.0000 0.15807  0.99174  0.29441  Biso   1.000  N 
  B71      1.0000 0.25800  0.00000  0.32050  Biso   1.000  B 
  B72      1.0000 0.35530  0.00000  0.29420  Biso   1.000  B 
  N2       1.0000 0.34094  0.99158  0.20616  Biso   1.000  N 
  B73      1.0000 0.29420  0.00000  0.35530  Biso   1.000  B 
  B74      1.0000 0.22490  0.00000  0.33050  Biso   1.000  B 
  B75      1.0000 0.34350  0.00000  0.34350  Biso   1.000  B 
  B76      1.0000 0.38280  0.00000  0.38280  Biso   1.000  B 
  B77      1.0000 0.38860  0.00000  0.28510  Biso   1.000  B 
  B78      1.0000 0.28510  0.00000  0.38860  Biso   1.000  B 
  B79      1.0000 0.42810  0.00000  0.36740  Biso   1.000  B 
  B80      1.0000 0.36740  0.00000  0.42810  Biso   1.000  B 
  C1       1.0000 0.43989  0.97540  0.14674  Biso   1.000  C 
  C2       1.0000 0.37543  0.94825  0.20269  Biso   1.000  C 
  C3       1.0000 0.07032  0.08655  0.34063  Biso   1.000  C 
  C4       1.0000 0.11061  0.01725  0.30394  Biso   1.000  C 
  H1       1.0000 0.36804  0.92253  0.23413  Biso   1.000  H 
  C5       1.0000 0.43002  0.96628  0.20157  Biso   1.000  C 
  C6       1.0000 0.36930  0.91925  0.15496  Biso   1.000  C 
  C7       1.0000 0.39636  0.95222  0.11957  Biso   1.000  C 
  H2       1.0000 0.40938  0.93483  0.08573  Biso   1.000  H 
  H3       1.0000 0.36933  0.98178  0.11087  Biso   1.000  H 
  H4       1.0000 0.33033  0.91232  0.14299  Biso   1.000  H 
  H5       1.0000 0.38941  0.88331  0.15942  Biso   1.000  H 
  C8       1.0000 0.08876  0.99819  0.34963  Biso   1.000  C 
  H6       1.0000 0.11640  0.99070  0.37802  Biso   1.000  H 
  H7       1.0000 0.06766  0.96289  0.34095  Biso   1.000  H 
  C9       1.0000 0.05555  0.03936  0.36636  Biso   1.000  C 
  H8       1.0000 0.03939  0.10128  0.31799  Biso   1.000  H 
  C10      1.0000 0.11181  0.07418  0.30544  Biso   1.000  C 
  H9       1.0000 0.05582  0.04325  0.40745  Biso   1.000  H 
  H10      1.0000 0.01751  0.03264  0.35334  Biso   1.000  H 
  H11      1.0000 0.45595  0.93818  0.21590  Biso   1.000  H 
  H12      1.0000 0.43575  0.00127  0.22191  Biso   1.000  H 
  H13      1.0000 0.44085  0.01597  0.13712  Biso   1.000  H 
  H14      1.0000 0.14778  0.09052  0.31852  Biso   1.000  H 
  H15      1.0000 0.10584  0.08871  0.26730  Biso   1.000  H 
  H16      1.0000 0.07937  0.00695  0.27812  Biso   1.000  H 
  H17      1.0000 0.15405  0.95309  0.29878  Biso   1.000  H 
  H18      1.0000 0.35862  0.02481  0.19654  Biso   1.000  H 
  H19      1.0000 0.47553  0.95906  0.13472  Biso   1.000  H 
  H20      1.0000 0.08209  0.11347  0.36937  Biso   1.000  H 
  B81      1.0000 0.86740  0.00000  0.07190  Biso   1.000  B 
  B82      1.0000 0.88280  0.00000  0.11720  Biso   1.000  B 
  B83      1.0000 0.92810  0.00000  0.13260  Biso   1.000  B 
  B84      1.0000 0.84350  0.00000  0.15650  Biso   1.000  B 
  B85      1.0000 0.79420  0.00000  0.14470  Biso   1.000  B 
  B86      1.0000 0.85530  0.00000  0.20580  Biso   1.000  B 
  B87      1.0000 0.75800  0.00000  0.17950  Biso   1.000  B 
  B88      1.0000 0.78510  0.00000  0.11140  Biso   1.000  B 
  B89      1.0000 0.82050  0.00000  0.24200  Biso   1.000  B 
  B90      1.0000 0.88860  0.00000  0.21490  Biso   1.000  B 
  B91      1.0000 0.76930  0.00000  0.23070  Biso   1.000  B 
  B92      1.0000 0.73070  0.00000  0.26930  Biso   1.000  B 
  B93      1.0000 0.72490  0.00000  0.16950  Biso   1.000  B 
  B94      1.0000 0.67950  0.00000  0.25800  Biso   1.000  B 
  N3       1.0000 0.84193  0.00826  0.29441  Biso   1.000  N 
  B95      1.0000 0.74200  0.00000  0.32050  Biso   1.000  B 
  B96      1.0000 0.64470  0.00000  0.29420  Biso   1.000  B 
  N4       1.0000 0.65906  0.00842  0.20616  Biso   1.000  N 
  B97      1.0000 0.70580  0.00000  0.35530  Biso   1.000  B 
  B98      1.0000 0.77510  0.00000  0.33050  Biso   1.000  B 
  B99      1.0000 0.65650  0.00000  0.34350  Biso   1.000  B 
  B100     1.0000 0.61720  0.00000  0.38280  Biso   1.000  B 
  B101     1.0000 0.61140  0.00000  0.28510  Biso   1.000  B 
  B102     1.0000 0.71490  0.00000  0.38860  Biso   1.000  B 
  B103     1.0000 0.57190  0.00000  0.36740  Biso   1.000  B 
  B104     1.0000 0.63260  0.00000  0.42810  Biso   1.000  B 
  C11      1.0000 0.56011  0.02460  0.14674  Biso   1.000  C 
  C12      1.0000 0.62457  0.05175  0.20269  Biso   1.000  C 
  C13      1.0000 0.92968  0.91345  0.34063  Biso   1.000  C 
  C14      1.0000 0.88939  0.98275  0.30394  Biso   1.000  C 
  H21      1.0000 0.63196  0.07747  0.23413  Biso   1.000  H 
  C15      1.0000 0.56998  0.03371  0.20157  Biso   1.000  C 
  C16      1.0000 0.63070  0.08075  0.15496  Biso   1.000  C 
  C17      1.0000 0.60364  0.04778  0.11957  Biso   1.000  C 
  H22      1.0000 0.59062  0.06517  0.08573  Biso   1.000  H 
  H23      1.0000 0.63067  0.01822  0.11087  Biso   1.000  H 
  H24      1.0000 0.66967  0.08768  0.14299  Biso   1.000  H 
  H25      1.0000 0.61059  0.11669  0.15942  Biso   1.000  H 
  C18      1.0000 0.91124  0.00181  0.34963  Biso   1.000  C 
  H26      1.0000 0.88360  0.00930  0.37802  Biso   1.000  H 
  H27      1.0000 0.93234  0.03711  0.34095  Biso   1.000  H 
  C19      1.0000 0.94445  0.96063  0.36636  Biso   1.000  C 
  H28      1.0000 0.96061  0.89872  0.31799  Biso   1.000  H 
  C20      1.0000 0.88819  0.92582  0.30544  Biso   1.000  C 
  H29      1.0000 0.94418  0.95675  0.40745  Biso   1.000  H 
  H30      1.0000 0.98248  0.96736  0.35334  Biso   1.000  H 
  H31      1.0000 0.54405  0.06182  0.21590  Biso   1.000  H 
  H32      1.0000 0.56425  0.99874  0.22191  Biso   1.000  H 
  H33      1.0000 0.55915  0.98403  0.13712  Biso   1.000  H 
  H34      1.0000 0.85222  0.90948  0.31852  Biso   1.000  H 
  H35      1.0000 0.89416  0.91129  0.26730  Biso   1.000  H 
  H36      1.0000 0.92063  0.99305  0.27812  Biso   1.000  H 
  H37      1.0000 0.84595  0.04691  0.29878  Biso   1.000  H 
  H38      1.0000 0.64138  0.97519  0.19654  Biso   1.000  H 
  H39      1.0000 0.52447  0.04093  0.13472  Biso   1.000  H 
  H40      1.0000 0.91791  0.88653  0.36937  Biso   1.000  H 
  B105     1.0000 0.86740  0.00000  0.92810  Biso   1.000  B 
  B106     1.0000 0.88280  0.00000  0.88280  Biso   1.000  B 
  B107     1.0000 0.92810  0.00000  0.86740  Biso   1.000  B 
  B108     1.0000 0.84350  0.00000  0.84350  Biso   1.000  B 
  B109     1.0000 0.79420  0.00000  0.85530  Biso   1.000  B 
  B110     1.0000 0.85530  0.00000  0.79420  Biso   1.000  B 
  B111     1.0000 0.75800  0.00000  0.82050  Biso   1.000  B 
  B112     1.0000 0.78510  0.00000  0.88860  Biso   1.000  B 
  B113     1.0000 0.82050  0.00000  0.75800  Biso   1.000  B 
  B114     1.0000 0.88860  0.00000  0.78510  Biso   1.000  B 
  B115     1.0000 0.76930  0.00000  0.76930  Biso   1.000  B 
  B116     1.0000 0.73070  0.00000  0.73070  Biso   1.000  B 
  B117     1.0000 0.72490  0.00000  0.83050  Biso   1.000  B 
  B118     1.0000 0.67950  0.00000  0.74200  Biso   1.000  B 
  N5       1.0000 0.84193  0.99174  0.70560  Biso   1.000  N 
  B119     1.0000 0.74200  0.00000  0.67950  Biso   1.000  B 
  B120     1.0000 0.64470  0.00000  0.70580  Biso   1.000  B 
  N6       1.0000 0.65906  0.99158  0.79384  Biso   1.000  N 
  B121     1.0000 0.70580  0.00000  0.64470  Biso   1.000  B 
  B122     1.0000 0.77510  0.00000  0.66950  Biso   1.000  B 
  B123     1.0000 0.65650  0.00000  0.65650  Biso   1.000  B 
  B124     1.0000 0.61720  0.00000  0.61720  Biso   1.000  B 
  B125     1.0000 0.61140  0.00000  0.71490  Biso   1.000  B 
  B126     1.0000 0.71490  0.00000  0.61140  Biso   1.000  B 
  B127     1.0000 0.57190  0.00000  0.63260  Biso   1.000  B 
  B128     1.0000 0.63260  0.00000  0.57190  Biso   1.000  B 
  C21      1.0000 0.56011  0.97540  0.85326  Biso   1.000  C 
  C22      1.0000 0.62457  0.94825  0.79731  Biso   1.000  C 
  C23      1.0000 0.92968  0.08655  0.65937  Biso   1.000  C 
  C24      1.0000 0.88939  0.01725  0.69606  Biso   1.000  C 
  H41      1.0000 0.63196  0.92253  0.76587  Biso   1.000  H 
  C25      1.0000 0.56998  0.96628  0.79843  Biso   1.000  C 
  C26      1.0000 0.63070  0.91925  0.84504  Biso   1.000  C 
  C27      1.0000 0.60364  0.95222  0.88043  Biso   1.000  C 
  H42      1.0000 0.59062  0.93483  0.91427  Biso   1.000  H 
  H43      1.0000 0.63067  0.98178  0.88913  Biso   1.000  H 
  H44      1.0000 0.66967  0.91232  0.85702  Biso   1.000  H 
  H45      1.0000 0.61059  0.88331  0.84058  Biso   1.000  H 
  C28      1.0000 0.91124  0.99819  0.65037  Biso   1.000  C 
  H46      1.0000 0.88360  0.99070  0.62198  Biso   1.000  H 
  H47      1.0000 0.93234  0.96289  0.65905  Biso   1.000  H 
  C29      1.0000 0.94445  0.03936  0.63364  Biso   1.000  C 
  H48      1.0000 0.96061  0.10128  0.68201  Biso   1.000  H 
  C30      1.0000 0.88819  0.07418  0.69456  Biso   1.000  C 
  H49      1.0000 0.94418  0.04325  0.59255  Biso   1.000  H 
  H50      1.0000 0.98248  0.03264  0.64665  Biso   1.000  H 
  H51      1.0000 0.54405  0.93818  0.78410  Biso   1.000  H 
  H52      1.0000 0.56425  0.00127  0.77809  Biso   1.000  H 
  H53      1.0000 0.55915  0.01597  0.86288  Biso   1.000  H 
  H54      1.0000 0.85222  0.09052  0.68148  Biso   1.000  H 
  H55      1.0000 0.89416  0.08871  0.73270  Biso   1.000  H 
  H56      1.0000 0.92063  0.00695  0.72188  Biso   1.000  H 
  H57      1.0000 0.84595  0.95309  0.70122  Biso   1.000  H 
  H58      1.0000 0.64138  0.02481  0.80346  Biso   1.000  H 
  H59      1.0000 0.52447  0.95906  0.86528  Biso   1.000  H 
  H60      1.0000 0.91791  0.11347  0.63063  Biso   1.000  H 
  B129     1.0000 0.13260  0.00000  0.92810  Biso   1.000  B 
  B130     1.0000 0.11720  0.00000  0.88280  Biso   1.000  B 
  B131     1.0000 0.07190  0.00000  0.86740  Biso   1.000  B 
  B132     1.0000 0.15650  0.00000  0.84350  Biso   1.000  B 
  B133     1.0000 0.20580  0.00000  0.85530  Biso   1.000  B 
  B134     1.0000 0.14470  0.00000  0.79420  Biso   1.000  B 
  B135     1.0000 0.24200  0.00000  0.82050  Biso   1.000  B 
  B136     1.0000 0.21490  0.00000  0.88860  Biso   1.000  B 
  B137     1.0000 0.17950  0.00000  0.75800  Biso   1.000  B 
  B138     1.0000 0.11140  0.00000  0.78510  Biso   1.000  B 
  B139     1.0000 0.23070  0.00000  0.76930  Biso   1.000  B 
  B140     1.0000 0.26930  0.00000  0.73070  Biso   1.000  B 
  B141     1.0000 0.27510  0.00000  0.83050  Biso   1.000  B 
  B142     1.0000 0.32050  0.00000  0.74200  Biso   1.000  B 
  N7       1.0000 0.15807  0.00826  0.70560  Biso   1.000  N 
  B143     1.0000 0.25800  0.00000  0.67950  Biso   1.000  B 
  B144     1.0000 0.35530  0.00000  0.70580  Biso   1.000  B 
  N8       1.0000 0.34094  0.00842  0.79384  Biso   1.000  N 
  B145     1.0000 0.29420  0.00000  0.64470  Biso   1.000  B 
  B146     1.0000 0.22490  0.00000  0.66950  Biso   1.000  B 
  B147     1.0000 0.34350  0.00000  0.65650  Biso   1.000  B 
  B148     1.0000 0.38280  0.00000  0.61720  Biso   1.000  B 
  B149     1.0000 0.38860  0.00000  0.71490  Biso   1.000  B 
  B150     1.0000 0.28510  0.00000  0.61140  Biso   1.000  B 
  B151     1.0000 0.42810  0.00000  0.63260  Biso   1.000  B 
  B152     1.0000 0.36740  0.00000  0.57190  Biso   1.000  B 
  C31      1.0000 0.43989  0.02460  0.85326  Biso   1.000  C 
  C32      1.0000 0.37543  0.05175  0.79731  Biso   1.000  C 
  C33      1.0000 0.07032  0.91345  0.65937  Biso   1.000  C 
  C34      1.0000 0.11061  0.98275  0.69606  Biso   1.000  C 
  H61      1.0000 0.36804  0.07747  0.76587  Biso   1.000  H 
  C35      1.0000 0.43002  0.03371  0.79843  Biso   1.000  C 
  C36      1.0000 0.36930  0.08075  0.84504  Biso   1.000  C 
  C37      1.0000 0.39636  0.04778  0.88043  Biso   1.000  C 
  H62      1.0000 0.40938  0.06517  0.91427  Biso   1.000  H 
  H63      1.0000 0.36933  0.01822  0.88913  Biso   1.000  H 
  H64      1.0000 0.33033  0.08768  0.85702  Biso   1.000  H 
  H65      1.0000 0.38941  0.11669  0.84058  Biso   1.000  H 
  C38      1.0000 0.08876  0.00181  0.65037  Biso   1.000  C 
  H66      1.0000 0.11640  0.00930  0.62198  Biso   1.000  H 
  H67      1.0000 0.06766  0.03711  0.65905  Biso   1.000  H 
  C39      1.0000 0.05555  0.96063  0.63364  Biso   1.000  C 
  H68      1.0000 0.03939  0.89872  0.68201  Biso   1.000  H 
  C40      1.0000 0.11181  0.92582  0.69456  Biso   1.000  C 
  H69      1.0000 0.05582  0.95675  0.59255  Biso   1.000  H 
  H70      1.0000 0.01751  0.96736  0.64665  Biso   1.000  H 
  H71      1.0000 0.45595  0.06182  0.78410  Biso   1.000  H 
  H72      1.0000 0.43575  0.99874  0.77809  Biso   1.000  H 
  H73      1.0000 0.44085  0.98403  0.86288  Biso   1.000  H 
  H74      1.0000 0.14778  0.90948  0.68148  Biso   1.000  H 
  H75      1.0000 0.10584  0.91129  0.73270  Biso   1.000  H 
  H76      1.0000 0.07937  0.99305  0.72188  Biso   1.000  H 
  H77      1.0000 0.15405  0.04691  0.70122  Biso   1.000  H 
  H78      1.0000 0.35862  0.97519  0.80346  Biso   1.000  H 
  H79      1.0000 0.47553  0.04093  0.86528  Biso   1.000  H 
  H80      1.0000 0.08209  0.88653  0.63063  Biso   1.000  H 
  B153     1.0000 0.07190  0.13260  0.00000  Biso   1.000  B 
  B154     1.0000 0.11720  0.11720  0.00000  Biso   1.000  B 
  B155     1.0000 0.13260  0.07190  0.00000  Biso   1.000  B 
  B156     1.0000 0.15650  0.15650  0.00000  Biso   1.000  B 
  B157     1.0000 0.14470  0.20580  0.00000  Biso   1.000  B 
  B158     1.0000 0.20580  0.14470  0.00000  Biso   1.000  B 
  B159     1.0000 0.17950  0.24200  0.00000  Biso   1.000  B 
  B160     1.0000 0.11140  0.21490  0.00000  Biso   1.000  B 
  B161     1.0000 0.24200  0.17950  0.00000  Biso   1.000  B 
  B162     1.0000 0.21490  0.11140  0.00000  Biso   1.000  B 
  B163     1.0000 0.23070  0.23070  0.00000  Biso   1.000  B 
  B164     1.0000 0.26930  0.26930  0.00000  Biso   1.000  B 
  B165     1.0000 0.16950  0.27510  0.00000  Biso   1.000  B 
  B166     1.0000 0.25800  0.32050  0.00000  Biso   1.000  B 
  N9       1.0000 0.29402  0.15797  0.99126  Biso   1.000  N 
  B167     1.0000 0.32050  0.25800  0.00000  Biso   1.000  B 
  B168     1.0000 0.29420  0.35530  0.00000  Biso   1.000  B 
  N10      1.0000 0.21005  0.33880  0.97497  Biso   1.000  N 
  B169     1.0000 0.35530  0.29420  0.00000  Biso   1.000  B 
  B170     1.0000 0.33050  0.22490  0.00000  Biso   1.000  B 
  B171     1.0000 0.34350  0.34350  0.00000  Biso   1.000  B 
  B172     1.0000 0.38280  0.38280  0.00000  Biso   1.000  B 
  B173     1.0000 0.28510  0.38860  0.00000  Biso   1.000  B 
  B174     1.0000 0.38860  0.28510  0.00000  Biso   1.000  B 
  B175     1.0000 0.36740  0.42810  0.00000  Biso   1.000  B 
  B176     1.0000 0.42810  0.36740  0.00000  Biso   1.000  B 
  C41      1.0000 0.19020  0.36176  0.84012  Biso   1.000  C 
  C42      1.0000 0.21509  0.36400  0.92634  Biso   1.000  C 
  C43      1.0000 0.34437  0.07441  0.08635  Biso   1.000  C 
  C44      1.0000 0.30420  0.11177  0.01834  Biso   1.000  C 
  H81      1.0000 0.21455  0.40525  0.93048  Biso   1.000  H 
  C45      1.0000 0.17404  0.34542  0.89405  Biso   1.000  C 
  C46      1.0000 0.26272  0.35339  0.89715  Biso   1.000  C 
  C47      1.0000 0.24823  0.36186  0.84358  Biso   1.000  C 
  H82      1.0000 0.26198  0.39852  0.83200  Biso   1.000  H 
  H83      1.0000 0.26448  0.33292  0.81887  Biso   1.000  H 
  H84      1.0000 0.27421  0.31368  0.90199  Biso   1.000  H 
  H85      1.0000 0.29303  0.37991  0.90728  Biso   1.000  H 
  C48      1.0000 0.34830  0.08776  0.99682  Biso   1.000  C 
  H86      1.0000 0.37616  0.11433  0.98428  Biso   1.000  H 
  H87      1.0000 0.33755  0.06227  0.96550  Biso   1.000  H 
  C49      1.0000 0.37070  0.05959  0.03930  Biso   1.000  C 
  H88      1.0000 0.32149  0.04284  0.09996  Biso   1.000  H 
  C50      1.0000 0.30957  0.11618  0.07490  Biso   1.000  C 
  H89      1.0000 0.41062  0.06642  0.04108  Biso   1.000  H 
  H90      1.0000 0.36536  0.01947  0.03406  Biso   1.000  H 
  H91      1.0000 0.13813  0.36099  0.90813  Biso   1.000  H 
  H92      1.0000 0.17182  0.30344  0.89497  Biso   1.000  H 
  H93      1.0000 0.17405  0.33731  0.81070  Biso   1.000  H 
  H94      1.0000 0.32421  0.15282  0.08780  Biso   1.000  H 
  H95      1.0000 0.27274  0.11172  0.09306  Biso   1.000  H 
  H96      1.0000 0.27757  0.08014  0.01217  Biso   1.000  H 
  H97      1.0000 0.29638  0.15205  0.95269  Biso   1.000  H 
  H98      1.0000 0.19663  0.36593  0.99968  Biso   1.000  H 
  H99      1.0000 0.17646  0.40021  0.83599  Biso   1.000  H 
  H100     1.0000 0.37238  0.08518  0.11428  Biso   1.000  H 
  B177     1.0000 0.07190  0.86740  0.00000  Biso   1.000  B 
  B178     1.0000 0.11720  0.88280  0.00000  Biso   1.000  B 
  B179     1.0000 0.13260  0.92810  0.00000  Biso   1.000  B 
  B180     1.0000 0.15650  0.84350  0.00000  Biso   1.000  B 
  B181     1.0000 0.14470  0.79420  0.00000  Biso   1.000  B 
  B182     1.0000 0.20580  0.85530  0.00000  Biso   1.000  B 
  B183     1.0000 0.17950  0.75800  0.00000  Biso   1.000  B 
  B184     1.0000 0.11140  0.78510  0.00000  Biso   1.000  B 
  B185     1.0000 0.24200  0.82050  0.00000  Biso   1.000  B 
  B186     1.0000 0.21490  0.88860  0.00000  Biso   1.000  B 
  B187     1.0000 0.23070  0.76930  0.00000  Biso   1.000  B 
  B188     1.0000 0.26930  0.73070  0.00000  Biso   1.000  B 
  B189     1.0000 0.16950  0.72490  0.00000  Biso   1.000  B 
  B190     1.0000 0.25800  0.67950  0.00000  Biso   1.000  B 
  N11      1.0000 0.29402  0.84203  0.00875  Biso   1.000  N 
  B191     1.0000 0.32050  0.74200  0.00000  Biso   1.000  B 
  B192     1.0000 0.29420  0.64470  0.00000  Biso   1.000  B 
  N12      1.0000 0.21005  0.66119  0.02503  Biso   1.000  N 
  B193     1.0000 0.35530  0.70580  0.00000  Biso   1.000  B 
  B194     1.0000 0.33050  0.77510  0.00000  Biso   1.000  B 
  B195     1.0000 0.34350  0.65650  0.00000  Biso   1.000  B 
  B196     1.0000 0.38280  0.61720  0.00000  Biso   1.000  B 
  B197     1.0000 0.28510  0.61140  0.00000  Biso   1.000  B 
  B198     1.0000 0.38860  0.71490  0.00000  Biso   1.000  B 
  B199     1.0000 0.36740  0.57190  0.00000  Biso   1.000  B 
  B200     1.0000 0.42810  0.63260  0.00000  Biso   1.000  B 
  C51      1.0000 0.19020  0.63824  0.15988  Biso   1.000  C 
  C52      1.0000 0.21509  0.63600  0.07366  Biso   1.000  C 
  C53      1.0000 0.34437  0.92559  0.91365  Biso   1.000  C 
  C54      1.0000 0.30420  0.88823  0.98166  Biso   1.000  C 
  H101     1.0000 0.21455  0.59475  0.06952  Biso   1.000  H 
  C55      1.0000 0.17404  0.65458  0.10595  Biso   1.000  C 
  C56      1.0000 0.26272  0.64661  0.10285  Biso   1.000  C 
  C57      1.0000 0.24823  0.63814  0.15643  Biso   1.000  C 
  H102     1.0000 0.26198  0.60148  0.16800  Biso   1.000  H 
  H103     1.0000 0.26448  0.66708  0.18113  Biso   1.000  H 
  H104     1.0000 0.27421  0.68632  0.09801  Biso   1.000  H 
  H105     1.0000 0.29303  0.62009  0.09272  Biso   1.000  H 
  C58      1.0000 0.34830  0.91224  0.00318  Biso   1.000  C 
  H106     1.0000 0.37616  0.88567  0.01572  Biso   1.000  H 
  H107     1.0000 0.33755  0.93773  0.03450  Biso   1.000  H 
  C59      1.0000 0.37070  0.94041  0.96070  Biso   1.000  C 
  H108     1.0000 0.32149  0.95716  0.90004  Biso   1.000  H 
  C60      1.0000 0.30957  0.88382  0.92510  Biso   1.000  C 
  H109     1.0000 0.41062  0.93358  0.95892  Biso   1.000  H 
  H110     1.0000 0.36536  0.98053  0.96594  Biso   1.000  H 
  H111     1.0000 0.13813  0.63901  0.09187  Biso   1.000  H 
  H112     1.0000 0.17182  0.69656  0.10503  Biso   1.000  H 
  H113     1.0000 0.17405  0.66269  0.18930  Biso   1.000  H 
  H114     1.0000 0.32421  0.84718  0.91220  Biso   1.000  H 
  H115     1.0000 0.27274  0.88828  0.90694  Biso   1.000  H 
  H116     1.0000 0.27757  0.91986  0.98783  Biso   1.000  H 
  H117     1.0000 0.29638  0.84795  0.04731  Biso   1.000  H 
  H118     1.0000 0.19663  0.63407  0.00032  Biso   1.000  H 
  H119     1.0000 0.17646  0.59979  0.16400  Biso   1.000  H 
  H120     1.0000 0.37238  0.91482  0.88572  Biso   1.000  H 
  B201     1.0000 0.92810  0.86740  0.00000  Biso   1.000  B 
  B202     1.0000 0.88280  0.88280  0.00000  Biso   1.000  B 
  B203     1.0000 0.86740  0.92810  0.00000  Biso   1.000  B 
  B204     1.0000 0.84350  0.84350  0.00000  Biso   1.000  B 
  B205     1.0000 0.85530  0.79420  0.00000  Biso   1.000  B 
  B206     1.0000 0.79420  0.85530  0.00000  Biso   1.000  B 
  B207     1.0000 0.82050  0.75800  0.00000  Biso   1.000  B 
  B208     1.0000 0.88860  0.78510  0.00000  Biso   1.000  B 
  B209     1.0000 0.75800  0.82050  0.00000  Biso   1.000  B 
  B210     1.0000 0.78510  0.88860  0.00000  Biso   1.000  B 
  B211     1.0000 0.76930  0.76930  0.00000  Biso   1.000  B 
  B212     1.0000 0.73070  0.73070  0.00000  Biso   1.000  B 
  B213     1.0000 0.83050  0.72490  0.00000  Biso   1.000  B 
  B214     1.0000 0.74200  0.67950  0.00000  Biso   1.000  B 
  N13      1.0000 0.70598  0.84203  0.99126  Biso   1.000  N 
  B215     1.0000 0.67950  0.74200  0.00000  Biso   1.000  B 
  B216     1.0000 0.70580  0.64470  0.00000  Biso   1.000  B 
  N14      1.0000 0.78995  0.66119  0.97497  Biso   1.000  N 
  B217     1.0000 0.64470  0.70580  0.00000  Biso   1.000  B 
  B218     1.0000 0.66950  0.77510  0.00000  Biso   1.000  B 
  B219     1.0000 0.65650  0.65650  0.00000  Biso   1.000  B 
  B220     1.0000 0.61720  0.61720  0.00000  Biso   1.000  B 
  B221     1.0000 0.71490  0.61140  0.00000  Biso   1.000  B 
  B222     1.0000 0.61140  0.71490  0.00000  Biso   1.000  B 
  B223     1.0000 0.63260  0.57190  0.00000  Biso   1.000  B 
  B224     1.0000 0.57190  0.63260  0.00000  Biso   1.000  B 
  C61      1.0000 0.80980  0.63824  0.84012  Biso   1.000  C 
  C62      1.0000 0.78491  0.63600  0.92634  Biso   1.000  C 
  C63      1.0000 0.65563  0.92559  0.08635  Biso   1.000  C 
  C64      1.0000 0.69580  0.88823  0.01834  Biso   1.000  C 
  H121     1.0000 0.78545  0.59475  0.93048  Biso   1.000  H 
  C65      1.0000 0.82596  0.65458  0.89405  Biso   1.000  C 
  C66      1.0000 0.73728  0.64661  0.89715  Biso   1.000  C 
  C67      1.0000 0.75177  0.63814  0.84358  Biso   1.000  C 
  H122     1.0000 0.73802  0.60148  0.83200  Biso   1.000  H 
  H123     1.0000 0.73552  0.66708  0.81887  Biso   1.000  H 
  H124     1.0000 0.72579  0.68632  0.90199  Biso   1.000  H 
  H125     1.0000 0.70697  0.62009  0.90728  Biso   1.000  H 
  C68      1.0000 0.65170  0.91224  0.99682  Biso   1.000  C 
  H126     1.0000 0.62384  0.88567  0.98428  Biso   1.000  H 
  H127     1.0000 0.66244  0.93773  0.96550  Biso   1.000  H 
  C69      1.0000 0.62930  0.94041  0.03930  Biso   1.000  C 
  H128     1.0000 0.67851  0.95716  0.09996  Biso   1.000  H 
  C70      1.0000 0.69043  0.88382  0.07490  Biso   1.000  C 
  H129     1.0000 0.58938  0.93358  0.04108  Biso   1.000  H 
  H130     1.0000 0.63464  0.98053  0.03406  Biso   1.000  H 
  H131     1.0000 0.86187  0.63901  0.90813  Biso   1.000  H 
  H132     1.0000 0.82818  0.69656  0.89497  Biso   1.000  H 
  H133     1.0000 0.82595  0.66269  0.81070  Biso   1.000  H 
  H134     1.0000 0.67580  0.84718  0.08780  Biso   1.000  H 
  H135     1.0000 0.72726  0.88828  0.09306  Biso   1.000  H 
  H136     1.0000 0.72243  0.91986  0.01217  Biso   1.000  H 
  H137     1.0000 0.70362  0.84795  0.95269  Biso   1.000  H 
  H138     1.0000 0.80337  0.63407  0.99968  Biso   1.000  H 
  H139     1.0000 0.82354  0.59979  0.83599  Biso   1.000  H 
  H140     1.0000 0.62762  0.91482  0.11428  Biso   1.000  H 
  B225     1.0000 0.92810  0.13260  0.00000  Biso   1.000  B 
  B226     1.0000 0.88280  0.11720  0.00000  Biso   1.000  B 
  B227     1.0000 0.86740  0.07190  0.00000  Biso   1.000  B 
  B228     1.0000 0.84350  0.15650  0.00000  Biso   1.000  B 
  B229     1.0000 0.85530  0.20580  0.00000  Biso   1.000  B 
  B230     1.0000 0.79420  0.14470  0.00000  Biso   1.000  B 
  B231     1.0000 0.82050  0.24200  0.00000  Biso   1.000  B 
  B232     1.0000 0.88860  0.21490  0.00000  Biso   1.000  B 
  B233     1.0000 0.75800  0.17950  0.00000  Biso   1.000  B 
  B234     1.0000 0.78510  0.11140  0.00000  Biso   1.000  B 
  B235     1.0000 0.76930  0.23070  0.00000  Biso   1.000  B 
  B236     1.0000 0.73070  0.26930  0.00000  Biso   1.000  B 
  B237     1.0000 0.83050  0.27510  0.00000  Biso   1.000  B 
  B238     1.0000 0.74200  0.32050  0.00000  Biso   1.000  B 
  N15      1.0000 0.70598  0.15797  0.00875  Biso   1.000  N 
  B239     1.0000 0.67950  0.25800  0.00000  Biso   1.000  B 
  B240     1.0000 0.70580  0.35530  0.00000  Biso   1.000  B 
  N16      1.0000 0.78995  0.33880  0.02503  Biso   1.000  N 
  B241     1.0000 0.64470  0.29420  0.00000  Biso   1.000  B 
  B242     1.0000 0.66950  0.22490  0.00000  Biso   1.000  B 
  B243     1.0000 0.65650  0.34350  0.00000  Biso   1.000  B 
  B244     1.0000 0.61720  0.38280  0.00000  Biso   1.000  B 
  B245     1.0000 0.71490  0.38860  0.00000  Biso   1.000  B 
  B246     1.0000 0.61140  0.28510  0.00000  Biso   1.000  B 
  B247     1.0000 0.63260  0.42810  0.00000  Biso   1.000  B 
  B248     1.0000 0.57190  0.36740  0.00000  Biso   1.000  B 
  C71      1.0000 0.80980  0.36176  0.15988  Biso   1.000  C 
  C72      1.0000 0.78491  0.36400  0.07366  Biso   1.000  C 
  C73      1.0000 0.65563  0.07441  0.91365  Biso   1.000  C 
  C74      1.0000 0.69580  0.11177  0.98166  Biso   1.000  C 
  H141     1.0000 0.78545  0.40525  0.06952  Biso   1.000  H 
  C75      1.0000 0.82596  0.34542  0.10595  Biso   1.000  C 
  C76      1.0000 0.73728  0.35339  0.10285  Biso   1.000  C 
  C77      1.0000 0.75177  0.36186  0.15643  Biso   1.000  C 
  H142     1.0000 0.73802  0.39852  0.16800  Biso   1.000  H 
  H143     1.0000 0.73552  0.33292  0.18113  Biso   1.000  H 
  H144     1.0000 0.72579  0.31368  0.09801  Biso   1.000  H 
  H145     1.0000 0.70697  0.37991  0.09272  Biso   1.000  H 
  C78      1.0000 0.65170  0.08776  0.00318  Biso   1.000  C 
  H146     1.0000 0.62384  0.11433  0.01572  Biso   1.000  H 
  H147     1.0000 0.66244  0.06227  0.03450  Biso   1.000  H 
  C79      1.0000 0.62930  0.05959  0.96070  Biso   1.000  C 
  H148     1.0000 0.67851  0.04284  0.90004  Biso   1.000  H 
  C80      1.0000 0.69043  0.11618  0.92510  Biso   1.000  C 
  H149     1.0000 0.58938  0.06642  0.95892  Biso   1.000  H 
  H150     1.0000 0.63464  0.01947  0.96594  Biso   1.000  H 
  H151     1.0000 0.86187  0.36099  0.09187  Biso   1.000  H 
  H152     1.0000 0.82818  0.30344  0.10503  Biso   1.000  H 
  H153     1.0000 0.82595  0.33731  0.18930  Biso   1.000  H 
  H154     1.0000 0.67580  0.15282  0.91220  Biso   1.000  H 
  H155     1.0000 0.72726  0.11172  0.90694  Biso   1.000  H 
  H156     1.0000 0.72243  0.08014  0.98783  Biso   1.000  H 
  H157     1.0000 0.70362  0.15205  0.04731  Biso   1.000  H 
  H158     1.0000 0.80337  0.36593  0.00032  Biso   1.000  H 
  H159     1.0000 0.82354  0.40021  0.16400  Biso   1.000  H 
  H160     1.0000 0.62762  0.08518  0.88572  Biso   1.000  H 
  B249     1.0000 0.00000  0.07190  0.13260  Biso   1.000  B 
  B250     1.0000 0.00000  0.11720  0.11720  Biso   1.000  B 
  B251     1.0000 0.00000  0.13260  0.07190  Biso   1.000  B 
  B252     1.0000 0.00000  0.15650  0.15650  Biso   1.000  B 
  B253     1.0000 0.00000  0.14470  0.20580  Biso   1.000  B 
  B254     1.0000 0.00000  0.20580  0.14470  Biso   1.000  B 
  B255     1.0000 0.00000  0.17950  0.24200  Biso   1.000  B 
  B256     1.0000 0.00000  0.11140  0.21490  Biso   1.000  B 
  B257     1.0000 0.00000  0.24200  0.17950  Biso   1.000  B 
  B258     1.0000 0.00000  0.21490  0.11140  Biso   1.000  B 
  B259     1.0000 0.00000  0.23070  0.23070  Biso   1.000  B 
  B260     1.0000 0.00000  0.26930  0.26930  Biso   1.000  B 
  B261     1.0000 0.00000  0.16950  0.27510  Biso   1.000  B 
  B262     1.0000 0.00000  0.25800  0.32050  Biso   1.000  B 
  N17      1.0000 0.98018  0.29179  0.16054  Biso   1.000  N 
  B263     1.0000 0.00000  0.32050  0.25800  Biso   1.000  B 
  B264     1.0000 0.00000  0.29420  0.35530  Biso   1.000  B 
  N18      1.0000 0.99149  0.20651  0.34078  Biso   1.000  N 
  B265     1.0000 0.00000  0.35530  0.29420  Biso   1.000  B 
  B266     1.0000 0.00000  0.33050  0.22490  Biso   1.000  B 
  B267     1.0000 0.00000  0.34350  0.34350  Biso   1.000  B 
  B268     1.0000 0.00000  0.38280  0.38280  Biso   1.000  B 
  B269     1.0000 0.00000  0.28510  0.38860  Biso   1.000  B 
  B270     1.0000 0.00000  0.38860  0.28510  Biso   1.000  B 
  B271     1.0000 0.00000  0.36740  0.42810  Biso   1.000  B 
  B272     1.0000 0.00000  0.42810  0.36740  Biso   1.000  B 
  C81      1.0000 0.97632  0.14699  0.43866  Biso   1.000  C 
  C82      1.0000 0.94800  0.20314  0.37505  Biso   1.000  C 
  C83      1.0000 0.06503  0.33905  0.06087  Biso   1.000  C 
  C84      1.0000 0.99882  0.31097  0.11171  Biso   1.000  C 
  H161     1.0000 0.92203  0.23435  0.36795  Biso   1.000  H 
  C85      1.0000 0.96605  0.20190  0.42987  Biso   1.000  C 
  C86      1.0000 0.91995  0.15527  0.36803  Biso   1.000  C 
  C87      1.0000 0.95268  0.12007  0.39529  Biso   1.000  C 
  H162     1.0000 0.93554  0.08558  0.40873  Biso   1.000  H 
  H163     1.0000 0.98175  0.11106  0.36827  Biso   1.000  H 
  H164     1.0000 0.91367  0.14338  0.32887  Biso   1.000  H 
  H165     1.0000 0.88397  0.15935  0.38788  Biso   1.000  H 
  C88      1.0000 0.99543  0.36708  0.11175  Biso   1.000  C 
  H166     1.0000 0.01258  0.38196  0.14561  Biso   1.000  H 
  H167     1.0000 0.95686  0.38012  0.10773  Biso   1.000  H 
  C89      1.0000 0.02414  0.37852  0.06573  Biso   1.000  C 
  H168     1.0000 0.06329  0.31878  0.02461  Biso   1.000  H 
  C90      1.0000 0.05335  0.30365  0.10032  Biso   1.000  C 
  H169     1.0000 0.03416  0.41824  0.06519  Biso   1.000  H 
  H170     1.0000 0.99751  0.37402  0.03574  Biso   1.000  H 
  H171     1.0000 0.93762  0.21517  0.45619  Biso   1.000  H 
  H172     1.0000 0.00093  0.22236  0.43576  Biso   1.000  H 
  H173     1.0000 0.01687  0.13830  0.43871  Biso   1.000  H 
  H174     1.0000 0.07312  0.30894  0.13630  Biso   1.000  H 
  H175     1.0000 0.05953  0.26424  0.08587  Biso   1.000  H 
  H176     1.0000 0.97596  0.29572  0.08069  Biso   1.000  H 
  H177     1.0000 0.94179  0.28798  0.15826  Biso   1.000  H 
  H178     1.0000 0.02479  0.19689  0.35835  Biso   1.000  H 
  H179     1.0000 0.96063  0.13462  0.47436  Biso   1.000  H 
  H180     1.0000 0.10238  0.35048  0.06726  Biso   1.000  H 
  B273     1.0000 0.00000  0.07190  0.86740  Biso   1.000  B 
  B274     1.0000 0.00000  0.11720  0.88280  Biso   1.000  B 
  B275     1.0000 0.00000  0.13260  0.92810  Biso   1.000  B 
  B276     1.0000 0.00000  0.15650  0.84350  Biso   1.000  B 
  B277     1.0000 0.00000  0.14470  0.79420  Biso   1.000  B 
  B278     1.0000 0.00000  0.20580  0.85530  Biso   1.000  B 
  B279     1.0000 0.00000  0.17950  0.75800  Biso   1.000  B 
  B280     1.0000 0.00000  0.11140  0.78510  Biso   1.000  B 
  B281     1.0000 0.00000  0.24200  0.82050  Biso   1.000  B 
  B282     1.0000 0.00000  0.21490  0.88860  Biso   1.000  B 
  B283     1.0000 0.00000  0.23070  0.76930  Biso   1.000  B 
  B284     1.0000 0.00000  0.26930  0.73070  Biso   1.000  B 
  B285     1.0000 0.00000  0.16950  0.72490  Biso   1.000  B 
  B286     1.0000 0.00000  0.25800  0.67950  Biso   1.000  B 
  N19      1.0000 0.01982  0.29179  0.83946  Biso   1.000  N 
  B287     1.0000 0.00000  0.32050  0.74200  Biso   1.000  B 
  B288     1.0000 0.00000  0.29420  0.64470  Biso   1.000  B 
  N20      1.0000 0.00852  0.20651  0.65922  Biso   1.000  N 
  B289     1.0000 0.00000  0.35530  0.70580  Biso   1.000  B 
  B290     1.0000 0.00000  0.33050  0.77510  Biso   1.000  B 
  B291     1.0000 0.00000  0.34350  0.65650  Biso   1.000  B 
  B292     1.0000 0.00000  0.38280  0.61720  Biso   1.000  B 
  B293     1.0000 0.00000  0.28510  0.61140  Biso   1.000  B 
  B294     1.0000 0.00000  0.38860  0.71490  Biso   1.000  B 
  B295     1.0000 0.00000  0.36740  0.57190  Biso   1.000  B 
  B296     1.0000 0.00000  0.42810  0.63260  Biso   1.000  B 
  C91      1.0000 0.02368  0.14699  0.56134  Biso   1.000  C 
  C92      1.0000 0.05199  0.20314  0.62495  Biso   1.000  C 
  C93      1.0000 0.93497  0.33905  0.93912  Biso   1.000  C 
  C94      1.0000 0.00118  0.31097  0.88830  Biso   1.000  C 
  H181     1.0000 0.07798  0.23435  0.63205  Biso   1.000  H 
  C95      1.0000 0.03395  0.20190  0.57013  Biso   1.000  C 
  C96      1.0000 0.08005  0.15527  0.63197  Biso   1.000  C 
  C97      1.0000 0.04732  0.12007  0.60471  Biso   1.000  C 
  H182     1.0000 0.06446  0.08558  0.59127  Biso   1.000  H 
  H183     1.0000 0.01825  0.11106  0.63173  Biso   1.000  H 
  H184     1.0000 0.08633  0.14338  0.67113  Biso   1.000  H 
  H185     1.0000 0.11603  0.15935  0.61212  Biso   1.000  H 
  C98      1.0000 0.00457  0.36708  0.88825  Biso   1.000  C 
  H186     1.0000 0.98742  0.38196  0.85439  Biso   1.000  H 
  H187     1.0000 0.04314  0.38012  0.89227  Biso   1.000  H 
  C99      1.0000 0.97586  0.37852  0.93427  Biso   1.000  C 
  H188     1.0000 0.93671  0.31878  0.97539  Biso   1.000  H 
  C100     1.0000 0.94665  0.30365  0.89968  Biso   1.000  C 
  H189     1.0000 0.96584  0.41824  0.93481  Biso   1.000  H 
  H190     1.0000 0.00249  0.37402  0.96426  Biso   1.000  H 
  H191     1.0000 0.06238  0.21517  0.54381  Biso   1.000  H 
  H192     1.0000 0.99907  0.22236  0.56424  Biso   1.000  H 
  H193     1.0000 0.98312  0.13830  0.56129  Biso   1.000  H 
  H194     1.0000 0.92688  0.30894  0.86370  Biso   1.000  H 
  H195     1.0000 0.94047  0.26424  0.91412  Biso   1.000  H 
  H196     1.0000 0.02404  0.29572  0.91932  Biso   1.000  H 
  H197     1.0000 0.05821  0.28798  0.84174  Biso   1.000  H 
  H198     1.0000 0.97521  0.19689  0.64165  Biso   1.000  H 
  H199     1.0000 0.03938  0.13462  0.52564  Biso   1.000  H 
  H200     1.0000 0.89762  0.35048  0.93274  Biso   1.000  H 
  B297     1.0000 0.00000  0.92810  0.86740  Biso   1.000  B 
  B298     1.0000 0.00000  0.88280  0.88280  Biso   1.000  B 
  B299     1.0000 0.00000  0.86740  0.92810  Biso   1.000  B 
  B300     1.0000 0.00000  0.84350  0.84350  Biso   1.000  B 
  B301     1.0000 0.00000  0.85530  0.79420  Biso   1.000  B 
  B302     1.0000 0.00000  0.79420  0.85530  Biso   1.000  B 
  B303     1.0000 0.00000  0.82050  0.75800  Biso   1.000  B 
  B304     1.0000 0.00000  0.88860  0.78510  Biso   1.000  B 
  B305     1.0000 0.00000  0.75800  0.82050  Biso   1.000  B 
  B306     1.0000 0.00000  0.78510  0.88860  Biso   1.000  B 
  B307     1.0000 0.00000  0.76930  0.76930  Biso   1.000  B 
  B308     1.0000 0.00000  0.73070  0.73070  Biso   1.000  B 
  B309     1.0000 0.00000  0.83050  0.72490  Biso   1.000  B 
  B310     1.0000 0.00000  0.74200  0.67950  Biso   1.000  B 
  N21      1.0000 0.98018  0.70821  0.83946  Biso   1.000  N 
  B311     1.0000 0.00000  0.67950  0.74200  Biso   1.000  B 
  B312     1.0000 0.00000  0.70580  0.64470  Biso   1.000  B 
  N22      1.0000 0.99149  0.79349  0.65922  Biso   1.000  N 
  B313     1.0000 0.00000  0.64470  0.70580  Biso   1.000  B 
  B314     1.0000 0.00000  0.66950  0.77510  Biso   1.000  B 
  B315     1.0000 0.00000  0.65650  0.65650  Biso   1.000  B 
  B316     1.0000 0.00000  0.61720  0.61720  Biso   1.000  B 
  B317     1.0000 0.00000  0.71490  0.61140  Biso   1.000  B 
  B318     1.0000 0.00000  0.61140  0.71490  Biso   1.000  B 
  B319     1.0000 0.00000  0.63260  0.57190  Biso   1.000  B 
  B320     1.0000 0.00000  0.57190  0.63260  Biso   1.000  B 
  C101     1.0000 0.97632  0.85301  0.56134  Biso   1.000  C 
  C102     1.0000 0.94800  0.79686  0.62495  Biso   1.000  C 
  C103     1.0000 0.06503  0.66095  0.93912  Biso   1.000  C 
  C104     1.0000 0.99882  0.68902  0.88830  Biso   1.000  C 
  H201     1.0000 0.92203  0.76565  0.63205  Biso   1.000  H 
  C105     1.0000 0.96605  0.79810  0.57013  Biso   1.000  C 
  C106     1.0000 0.91995  0.84473  0.63197  Biso   1.000  C 
  C107     1.0000 0.95268  0.87993  0.60471  Biso   1.000  C 
  H202     1.0000 0.93554  0.91441  0.59127  Biso   1.000  H 
  H203     1.0000 0.98175  0.88894  0.63173  Biso   1.000  H 
  H204     1.0000 0.91367  0.85662  0.67113  Biso   1.000  H 
  H205     1.0000 0.88397  0.84065  0.61212  Biso   1.000  H 
  C108     1.0000 0.99543  0.63292  0.88825  Biso   1.000  C 
  H206     1.0000 0.01258  0.61804  0.85439  Biso   1.000  H 
  H207     1.0000 0.95686  0.61988  0.89227  Biso   1.000  H 
  C109     1.0000 0.02414  0.62148  0.93427  Biso   1.000  C 
  H208     1.0000 0.06329  0.68122  0.97539  Biso   1.000  H 
  C110     1.0000 0.05335  0.69635  0.89968  Biso   1.000  C 
  H209     1.0000 0.03416  0.58176  0.93481  Biso   1.000  H 
  H210     1.0000 0.99751  0.62598  0.96426  Biso   1.000  H 
  H211     1.0000 0.93762  0.78483  0.54381  Biso   1.000  H 
  H212     1.0000 0.00093  0.77764  0.56424  Biso   1.000  H 
  H213     1.0000 0.01687  0.86170  0.56129  Biso   1.000  H 
  H214     1.0000 0.07312  0.69106  0.86370  Biso   1.000  H 
  H215     1.0000 0.05953  0.73576  0.91412  Biso   1.000  H 
  H216     1.0000 0.97596  0.70428  0.91932  Biso   1.000  H 
  H217     1.0000 0.94179  0.71202  0.84174  Biso   1.000  H 
  H218     1.0000 0.02479  0.80311  0.64165  Biso   1.000  H 
  H219     1.0000 0.96063  0.86539  0.52564  Biso   1.000  H 
  H220     1.0000 0.10238  0.64952  0.93274  Biso   1.000  H 
  B321     1.0000 0.00000  0.92810  0.13260  Biso   1.000  B 
  B322     1.0000 0.00000  0.88280  0.11720  Biso   1.000  B 
  B323     1.0000 0.00000  0.86740  0.07190  Biso   1.000  B 
  B324     1.0000 0.00000  0.84350  0.15650  Biso   1.000  B 
  B325     1.0000 0.00000  0.85530  0.20580  Biso   1.000  B 
  B326     1.0000 0.00000  0.79420  0.14470  Biso   1.000  B 
  B327     1.0000 0.00000  0.82050  0.24200  Biso   1.000  B 
  B328     1.0000 0.00000  0.88860  0.21490  Biso   1.000  B 
  B329     1.0000 0.00000  0.75800  0.17950  Biso   1.000  B 
  B330     1.0000 0.00000  0.78510  0.11140  Biso   1.000  B 
  B331     1.0000 0.00000  0.76930  0.23070  Biso   1.000  B 
  B332     1.0000 0.00000  0.73070  0.26930  Biso   1.000  B 
  B333     1.0000 0.00000  0.83050  0.27510  Biso   1.000  B 
  B334     1.0000 0.00000  0.74200  0.32050  Biso   1.000  B 
  N23      1.0000 0.01982  0.70821  0.16054  Biso   1.000  N 
  B335     1.0000 0.00000  0.67950  0.25800  Biso   1.000  B 
  B336     1.0000 0.00000  0.70580  0.35530  Biso   1.000  B 
  N24      1.0000 0.00852  0.79349  0.34078  Biso   1.000  N 
  B337     1.0000 0.00000  0.64470  0.29420  Biso   1.000  B 
  B338     1.0000 0.00000  0.66950  0.22490  Biso   1.000  B 
  B339     1.0000 0.00000  0.65650  0.34350  Biso   1.000  B 
  B340     1.0000 0.00000  0.61720  0.38280  Biso   1.000  B 
  B341     1.0000 0.00000  0.71490  0.38860  Biso   1.000  B 
  B342     1.0000 0.00000  0.61140  0.28510  Biso   1.000  B 
  B343     1.0000 0.00000  0.63260  0.42810  Biso   1.000  B 
  B344     1.0000 0.00000  0.57190  0.36740  Biso   1.000  B 
  C111     1.0000 0.02368  0.85301  0.43866  Biso   1.000  C 
  C112     1.0000 0.05199  0.79686  0.37505  Biso   1.000  C 
  C113     1.0000 0.93497  0.66095  0.06087  Biso   1.000  C 
  C114     1.0000 0.00118  0.68902  0.11171  Biso   1.000  C 
  H221     1.0000 0.07798  0.76565  0.36795  Biso   1.000  H 
  C115     1.0000 0.03395  0.79810  0.42987  Biso   1.000  C 
  C116     1.0000 0.08005  0.84473  0.36803  Biso   1.000  C 
  C117     1.0000 0.04732  0.87993  0.39529  Biso   1.000  C 
  H222     1.0000 0.06446  0.91441  0.40873  Biso   1.000  H 
  H223     1.0000 0.01825  0.88894  0.36827  Biso   1.000  H 
  H224     1.0000 0.08633  0.85662  0.32887  Biso   1.000  H 
  H225     1.0000 0.11603  0.84065  0.38788  Biso   1.000  H 
  C118     1.0000 0.00457  0.63292  0.11175  Biso   1.000  C 
  H226     1.0000 0.98742  0.61804  0.14561  Biso   1.000  H 
  H227     1.0000 0.04314  0.61988  0.10773  Biso   1.000  H 
  C119     1.0000 0.97586  0.62148  0.06573  Biso   1.000  C 
  H228     1.0000 0.93671  0.68122  0.02461  Biso   1.000  H 
  C120     1.0000 0.94665  0.69635  0.10032  Biso   1.000  C 
  H229     1.0000 0.96584  0.58176  0.06519  Biso   1.000  H 
  H230     1.0000 0.00249  0.62598  0.03574  Biso   1.000  H 
  H231     1.0000 0.06238  0.78483  0.45619  Biso   1.000  H 
  H232     1.0000 0.99907  0.77764  0.43576  Biso   1.000  H 
  H233     1.0000 0.98312  0.86170  0.43871  Biso   1.000  H 
  H234     1.0000 0.92688  0.69106  0.13630  Biso   1.000  H 
  H235     1.0000 0.94047  0.73576  0.08587  Biso   1.000  H 
  H236     1.0000 0.02404  0.70428  0.08069  Biso   1.000  H 
  H237     1.0000 0.05821  0.71202  0.15826  Biso   1.000  H 
  H238     1.0000 0.97521  0.80311  0.35835  Biso   1.000  H 
  H239     1.0000 0.03938  0.86539  0.47436  Biso   1.000  H 
  H240     1.0000 0.89762  0.64952  0.06726  Biso   1.000  H 
  B345     1.0000 0.13260  0.50000  0.57190  Biso   1.000  B 
  B346     1.0000 0.11720  0.50000  0.61720  Biso   1.000  B 
  B347     1.0000 0.07190  0.50000  0.63260  Biso   1.000  B 
  B348     1.0000 0.15650  0.50000  0.65650  Biso   1.000  B 
  B349     1.0000 0.20580  0.50000  0.64470  Biso   1.000  B 
  B350     1.0000 0.14470  0.50000  0.70580  Biso   1.000  B 
  B351     1.0000 0.24200  0.50000  0.67950  Biso   1.000  B 
  B352     1.0000 0.21490  0.50000  0.61140  Biso   1.000  B 
  B353     1.0000 0.17950  0.50000  0.74200  Biso   1.000  B 
  B354     1.0000 0.11140  0.50000  0.71490  Biso   1.000  B 
  B355     1.0000 0.23070  0.50000  0.73070  Biso   1.000  B 
  B356     1.0000 0.26930  0.50000  0.76930  Biso   1.000  B 
  B357     1.0000 0.27510  0.50000  0.66950  Biso   1.000  B 
  B358     1.0000 0.32050  0.50000  0.75800  Biso   1.000  B 
  N25      1.0000 0.16039  0.51307  0.79351  Biso   1.000  N 
  B359     1.0000 0.25800  0.50000  0.82050  Biso   1.000  B 
  B360     1.0000 0.35530  0.50000  0.79420  Biso   1.000  B 
  N26      1.0000 0.33869  0.47449  0.71013  Biso   1.000  N 
  B361     1.0000 0.29420  0.50000  0.85530  Biso   1.000  B 
  B362     1.0000 0.22490  0.50000  0.83050  Biso   1.000  B 
  B363     1.0000 0.34350  0.50000  0.84350  Biso   1.000  B 
  B364     1.0000 0.38280  0.50000  0.88280  Biso   1.000  B 
  B365     1.0000 0.38860  0.50000  0.78510  Biso   1.000  B 
  B366     1.0000 0.28510  0.50000  0.88860  Biso   1.000  B 
  B367     1.0000 0.42810  0.50000  0.86740  Biso   1.000  B 
  B368     1.0000 0.36740  0.50000  0.92810  Biso   1.000  B 
  C121     1.0000 0.37474  0.34088  0.69362  Biso   1.000  C 
  C122     1.0000 0.36274  0.42700  0.72123  Biso   1.000  C 
  C123     1.0000 0.18517  0.60239  0.86909  Biso   1.000  C 
  C124     1.0000 0.14253  0.56371  0.79871  Biso   1.000  C 
  H241     1.0000 0.39680  0.43306  0.74389  Biso   1.000  H 
  C125     1.0000 0.37956  0.39747  0.67532  Biso   1.000  C 
  C126     1.0000 0.33102  0.39169  0.75014  Biso   1.000  C 
  C127     1.0000 0.36007  0.34514  0.74793  Biso   1.000  C 
  H242     1.0000 0.39327  0.34765  0.77300  Biso   1.000  H 
  H243     1.0000 0.33627  0.31350  0.75998  Biso   1.000  H 
  H244     1.0000 0.29575  0.38753  0.72836  Biso   1.000  H 
  H245     1.0000 0.32320  0.40403  0.78749  Biso   1.000  H 
  C128     1.0000 0.10595  0.56382  0.84120  Biso   1.000  C 
  H246     1.0000 0.08147  0.52952  0.84283  Biso   1.000  H 
  H247     1.0000 0.08244  0.59524  0.83348  Biso   1.000  H 
  C129     1.0000 0.14171  0.56814  0.88792  Biso   1.000  C 
  H248     1.0000 0.17565  0.64246  0.87915  Biso   1.000  H 
  C130     1.0000 0.18582  0.59933  0.81176  Biso   1.000  C 
  H249     1.0000 0.15247  0.52903  0.89831  Biso   1.000  H 
  H250     1.0000 0.12204  0.58023  0.91945  Biso   1.000  H 
  H251     1.0000 0.41792  0.40807  0.66367  Biso   1.000  H 
  H252     1.0000 0.35328  0.40223  0.64253  Biso   1.000  H 
  H253     1.0000 0.34691  0.31867  0.67141  Biso   1.000  H 
  H254     1.0000 0.22162  0.58800  0.79373  Biso   1.000  H 
  H255     1.0000 0.17581  0.63699  0.80027  Biso   1.000  H 
  H256     1.0000 0.12576  0.57614  0.76208  Biso   1.000  H 
  H257     1.0000 0.13384  0.48577  0.80091  Biso   1.000  H 
  H258     1.0000 0.36731  0.49758  0.69523  Biso   1.000  H 
  H259     1.0000 0.41130  0.32246  0.68908  Biso   1.000  H 
  H260     1.0000 0.22098  0.58881  0.88358  Biso   1.000  H 
  B369     1.0000 0.86740  0.50000  0.57190  Biso   1.000  B 
  B370     1.0000 0.88280  0.50000  0.61720  Biso   1.000  B 
  B371     1.0000 0.92810  0.50000  0.63260  Biso   1.000  B 
  B372     1.0000 0.84350  0.50000  0.65650  Biso   1.000  B 
  B373     1.0000 0.79420  0.50000  0.64470  Biso   1.000  B 
  B374     1.0000 0.85530  0.50000  0.70580  Biso   1.000  B 
  B375     1.0000 0.75800  0.50000  0.67950  Biso   1.000  B 
  B376     1.0000 0.78510  0.50000  0.61140  Biso   1.000  B 
  B377     1.0000 0.82050  0.50000  0.74200  Biso   1.000  B 
  B378     1.0000 0.88860  0.50000  0.71490  Biso   1.000  B 
  B379     1.0000 0.76930  0.50000  0.73070  Biso   1.000  B 
  B380     1.0000 0.73070  0.50000  0.76930  Biso   1.000  B 
  B381     1.0000 0.72490  0.50000  0.66950  Biso   1.000  B 
  B382     1.0000 0.67950  0.50000  0.75800  Biso   1.000  B 
  N27      1.0000 0.83961  0.48693  0.79351  Biso   1.000  N 
  B383     1.0000 0.74200  0.50000  0.82050  Biso   1.000  B 
  B384     1.0000 0.64470  0.50000  0.79420  Biso   1.000  B 
  N28      1.0000 0.66131  0.52551  0.71013  Biso   1.000  N 
  B385     1.0000 0.70580  0.50000  0.85530  Biso   1.000  B 
  B386     1.0000 0.77510  0.50000  0.83050  Biso   1.000  B 
  B387     1.0000 0.65650  0.50000  0.84350  Biso   1.000  B 
  B388     1.0000 0.61720  0.50000  0.88280  Biso   1.000  B 
  B389     1.0000 0.61140  0.50000  0.78510  Biso   1.000  B 
  B390     1.0000 0.71490  0.50000  0.88860  Biso   1.000  B 
  B391     1.0000 0.57190  0.50000  0.86740  Biso   1.000  B 
  B392     1.0000 0.63260  0.50000  0.92810  Biso   1.000  B 
  C131     1.0000 0.62526  0.65912  0.69362  Biso   1.000  C 
  C132     1.0000 0.63726  0.57300  0.72123  Biso   1.000  C 
  C133     1.0000 0.81483  0.39761  0.86909  Biso   1.000  C 
  C134     1.0000 0.85747  0.43629  0.79871  Biso   1.000  C 
  H261     1.0000 0.60320  0.56694  0.74389  Biso   1.000  H 
  C135     1.0000 0.62044  0.60253  0.67532  Biso   1.000  C 
  C136     1.0000 0.66898  0.60831  0.75014  Biso   1.000  C 
  C137     1.0000 0.63993  0.65486  0.74793  Biso   1.000  C 
  H262     1.0000 0.60673  0.65235  0.77300  Biso   1.000  H 
  H263     1.0000 0.66373  0.68650  0.75998  Biso   1.000  H 
  H264     1.0000 0.70425  0.61247  0.72836  Biso   1.000  H 
  H265     1.0000 0.67680  0.59597  0.78749  Biso   1.000  H 
  C138     1.0000 0.89405  0.43618  0.84120  Biso   1.000  C 
  H266     1.0000 0.91853  0.47048  0.84283  Biso   1.000  H 
  H267     1.0000 0.91756  0.40476  0.83348  Biso   1.000  H 
  C139     1.0000 0.85829  0.43186  0.88792  Biso   1.000  C 
  H268     1.0000 0.82435  0.35754  0.87915  Biso   1.000  H 
  C140     1.0000 0.81418  0.40067  0.81176  Biso   1.000  C 
  H269     1.0000 0.84753  0.47097  0.89831  Biso   1.000  H 
  H270     1.0000 0.87796  0.41977  0.91945  Biso   1.000  H 
  H271     1.0000 0.58208  0.59193  0.66367  Biso   1.000  H 
  H272     1.0000 0.64672  0.59777  0.64253  Biso   1.000  H 
  H273     1.0000 0.65309  0.68133  0.67141  Biso   1.000  H 
  H274     1.0000 0.77838  0.41200  0.79373  Biso   1.000  H 
  H275     1.0000 0.82419  0.36301  0.80027  Biso   1.000  H 
  H276     1.0000 0.87424  0.42386  0.76208  Biso   1.000  H 
  H277     1.0000 0.86616  0.51423  0.80091  Biso   1.000  H 
  H278     1.0000 0.63269  0.50242  0.69523  Biso   1.000  H 
  H279     1.0000 0.58870  0.67754  0.68908  Biso   1.000  H 
  H280     1.0000 0.77902  0.41119  0.88358  Biso   1.000  H 
  B393     1.0000 0.86740  0.50000  0.42810  Biso   1.000  B 
  B394     1.0000 0.88280  0.50000  0.38280  Biso   1.000  B 
  B395     1.0000 0.92810  0.50000  0.36740  Biso   1.000  B 
  B396     1.0000 0.84350  0.50000  0.34350  Biso   1.000  B 
  B397     1.0000 0.79420  0.50000  0.35530  Biso   1.000  B 
  B398     1.0000 0.85530  0.50000  0.29420  Biso   1.000  B 
  B399     1.0000 0.75800  0.50000  0.32050  Biso   1.000  B 
  B400     1.0000 0.78510  0.50000  0.38860  Biso   1.000  B 
  B401     1.0000 0.82050  0.50000  0.25800  Biso   1.000  B 
  B402     1.0000 0.88860  0.50000  0.28510  Biso   1.000  B 
  B403     1.0000 0.76930  0.50000  0.26930  Biso   1.000  B 
  B404     1.0000 0.73070  0.50000  0.23070  Biso   1.000  B 
  B405     1.0000 0.72490  0.50000  0.33050  Biso   1.000  B 
  B406     1.0000 0.67950  0.50000  0.24200  Biso   1.000  B 
  N29      1.0000 0.83961  0.51307  0.20649  Biso   1.000  N 
  B407     1.0000 0.74200  0.50000  0.17950  Biso   1.000  B 
  B408     1.0000 0.64470  0.50000  0.20580  Biso   1.000  B 
  N30      1.0000 0.66131  0.47449  0.28987  Biso   1.000  N 
  B409     1.0000 0.70580  0.50000  0.14470  Biso   1.000  B 
  B410     1.0000 0.77510  0.50000  0.16950  Biso   1.000  B 
  B411     1.0000 0.65650  0.50000  0.15650  Biso   1.000  B 
  B412     1.0000 0.61720  0.50000  0.11720  Biso   1.000  B 
  B413     1.0000 0.61140  0.50000  0.21490  Biso   1.000  B 
  B414     1.0000 0.71490  0.50000  0.11140  Biso   1.000  B 
  B415     1.0000 0.57190  0.50000  0.13260  Biso   1.000  B 
  B416     1.0000 0.63260  0.50000  0.07190  Biso   1.000  B 
  C141     1.0000 0.62526  0.34088  0.30638  Biso   1.000  C 
  C142     1.0000 0.63726  0.42700  0.27877  Biso   1.000  C 
  C143     1.0000 0.81483  0.60239  0.13091  Biso   1.000  C 
  C144     1.0000 0.85747  0.56371  0.20129  Biso   1.000  C 
  H281     1.0000 0.60320  0.43306  0.25611  Biso   1.000  H 
  C145     1.0000 0.62044  0.39747  0.32468  Biso   1.000  C 
  C146     1.0000 0.66898  0.39169  0.24986  Biso   1.000  C 
  C147     1.0000 0.63993  0.34514  0.25207  Biso   1.000  C 
  H282     1.0000 0.60673  0.34765  0.22700  Biso   1.000  H 
  H283     1.0000 0.66373  0.31350  0.24002  Biso   1.000  H 
  H284     1.0000 0.70425  0.38753  0.27164  Biso   1.000  H 
  H285     1.0000 0.67680  0.40403  0.21251  Biso   1.000  H 
  C148     1.0000 0.89405  0.56382  0.15880  Biso   1.000  C 
  H286     1.0000 0.91853  0.52952  0.15717  Biso   1.000  H 
  H287     1.0000 0.91756  0.59524  0.16652  Biso   1.000  H 
  C149     1.0000 0.85829  0.56814  0.11208  Biso   1.000  C 
  H288     1.0000 0.82435  0.64246  0.12085  Biso   1.000  H 
  C150     1.0000 0.81418  0.59933  0.18824  Biso   1.000  C 
  H289     1.0000 0.84753  0.52903  0.10169  Biso   1.000  H 
  H290     1.0000 0.87796  0.58023  0.08055  Biso   1.000  H 
  H291     1.0000 0.58208  0.40807  0.33633  Biso   1.000  H 
  H292     1.0000 0.64672  0.40223  0.35747  Biso   1.000  H 
  H293     1.0000 0.65309  0.31867  0.32859  Biso   1.000  H 
  H294     1.0000 0.77838  0.58800  0.20627  Biso   1.000  H 
  H295     1.0000 0.82419  0.63699  0.19973  Biso   1.000  H 
  H296     1.0000 0.87424  0.57614  0.23792  Biso   1.000  H 
  H297     1.0000 0.86616  0.48577  0.19909  Biso   1.000  H 
  H298     1.0000 0.63269  0.49758  0.30477  Biso   1.000  H 
  H299     1.0000 0.58870  0.32246  0.31092  Biso   1.000  H 
  H300     1.0000 0.77902  0.58881  0.11642  Biso   1.000  H 
  B417     1.0000 0.13260  0.50000  0.42810  Biso   1.000  B 
  B418     1.0000 0.11720  0.50000  0.38280  Biso   1.000  B 
  B419     1.0000 0.07190  0.50000  0.36740  Biso   1.000  B 
  B420     1.0000 0.15650  0.50000  0.34350  Biso   1.000  B 
  B421     1.0000 0.20580  0.50000  0.35530  Biso   1.000  B 
  B422     1.0000 0.14470  0.50000  0.29420  Biso   1.000  B 
  B423     1.0000 0.24200  0.50000  0.32050  Biso   1.000  B 
  B424     1.0000 0.21490  0.50000  0.38860  Biso   1.000  B 
  B425     1.0000 0.17950  0.50000  0.25800  Biso   1.000  B 
  B426     1.0000 0.11140  0.50000  0.28510  Biso   1.000  B 
  B427     1.0000 0.23070  0.50000  0.26930  Biso   1.000  B 
  B428     1.0000 0.26930  0.50000  0.23070  Biso   1.000  B 
  B429     1.0000 0.27510  0.50000  0.33050  Biso   1.000  B 
  B430     1.0000 0.32050  0.50000  0.24200  Biso   1.000  B 
  N31      1.0000 0.16039  0.48693  0.20649  Biso   1.000  N 
  B431     1.0000 0.25800  0.50000  0.17950  Biso   1.000  B 
  B432     1.0000 0.35530  0.50000  0.20580  Biso   1.000  B 
  N32      1.0000 0.33869  0.52551  0.28987  Biso   1.000  N 
  B433     1.0000 0.29420  0.50000  0.14470  Biso   1.000  B 
  B434     1.0000 0.22490  0.50000  0.16950  Biso   1.000  B 
  B435     1.0000 0.34350  0.50000  0.15650  Biso   1.000  B 
  B436     1.0000 0.38280  0.50000  0.11720  Biso   1.000  B 
  B437     1.0000 0.38860  0.50000  0.21490  Biso   1.000  B 
  B438     1.0000 0.28510  0.50000  0.11140  Biso   1.000  B 
  B439     1.0000 0.42810  0.50000  0.13260  Biso   1.000  B 
  B440     1.0000 0.36740  0.50000  0.07190  Biso   1.000  B 
  C151     1.0000 0.37474  0.65912  0.30638  Biso   1.000  C 
  C152     1.0000 0.36274  0.57300  0.27877  Biso   1.000  C 
  C153     1.0000 0.18517  0.39761  0.13091  Biso   1.000  C 
  C154     1.0000 0.14253  0.43629  0.20129  Biso   1.000  C 
  H301     1.0000 0.39680  0.56694  0.25611  Biso   1.000  H 
  C155     1.0000 0.37956  0.60253  0.32468  Biso   1.000  C 
  C156     1.0000 0.33102  0.60831  0.24986  Biso   1.000  C 
  C157     1.0000 0.36007  0.65486  0.25207  Biso   1.000  C 
  H302     1.0000 0.39327  0.65235  0.22700  Biso   1.000  H 
  H303     1.0000 0.33627  0.68650  0.24002  Biso   1.000  H 
  H304     1.0000 0.29575  0.61247  0.27164  Biso   1.000  H 
  H305     1.0000 0.32320  0.59597  0.21251  Biso   1.000  H 
  C158     1.0000 0.10595  0.43618  0.15880  Biso   1.000  C 
  H306     1.0000 0.08147  0.47048  0.15717  Biso   1.000  H 
  H307     1.0000 0.08244  0.40476  0.16652  Biso   1.000  H 
  C159     1.0000 0.14171  0.43186  0.11208  Biso   1.000  C 
  H308     1.0000 0.17565  0.35754  0.12085  Biso   1.000  H 
  C160     1.0000 0.18582  0.40067  0.18824  Biso   1.000  C 
  H309     1.0000 0.15247  0.47097  0.10169  Biso   1.000  H 
  H310     1.0000 0.12204  0.41977  0.08055  Biso   1.000  H 
  H311     1.0000 0.41792  0.59193  0.33633  Biso   1.000  H 
  H312     1.0000 0.35328  0.59777  0.35747  Biso   1.000  H 
  H313     1.0000 0.34691  0.68133  0.32859  Biso   1.000  H 
  H314     1.0000 0.22162  0.41200  0.20627  Biso   1.000  H 
  H315     1.0000 0.17581  0.36301  0.19973  Biso   1.000  H 
  H316     1.0000 0.12576  0.42386  0.23792  Biso   1.000  H 
  H317     1.0000 0.13384  0.51423  0.19909  Biso   1.000  H 
  H318     1.0000 0.36731  0.50242  0.30477  Biso   1.000  H 
  H319     1.0000 0.41130  0.67754  0.31092  Biso   1.000  H 
  H320     1.0000 0.22098  0.41119  0.11642  Biso   1.000  H 
  B441     1.0000 0.07190  0.63260  0.50000  Biso   1.000  B 
  B442     1.0000 0.11720  0.61720  0.50000  Biso   1.000  B 
  B443     1.0000 0.13260  0.57190  0.50000  Biso   1.000  B 
  B444     1.0000 0.15650  0.65650  0.50000  Biso   1.000  B 
  B445     1.0000 0.14470  0.70580  0.50000  Biso   1.000  B 
  B446     1.0000 0.20580  0.64470  0.50000  Biso   1.000  B 
  B447     1.0000 0.17950  0.74200  0.50000  Biso   1.000  B 
  B448     1.0000 0.11140  0.71490  0.50000  Biso   1.000  B 
  B449     1.0000 0.24200  0.67950  0.50000  Biso   1.000  B 
  B450     1.0000 0.21490  0.61140  0.50000  Biso   1.000  B 
  B451     1.0000 0.23070  0.73070  0.50000  Biso   1.000  B 
  B452     1.0000 0.26930  0.76930  0.50000  Biso   1.000  B 
  B453     1.0000 0.16950  0.77510  0.50000  Biso   1.000  B 
  B454     1.0000 0.25800  0.82050  0.50000  Biso   1.000  B 
  N33      1.0000 0.29133  0.66054  0.47904  Biso   1.000  N 
  B455     1.0000 0.32050  0.75800  0.50000  Biso   1.000  B 
  B456     1.0000 0.29420  0.85530  0.50000  Biso   1.000  B 
  N34      1.0000 0.20655  0.84014  0.51458  Biso   1.000  N 
  B457     1.0000 0.35530  0.79420  0.50000  Biso   1.000  B 
  B458     1.0000 0.33050  0.72490  0.50000  Biso   1.000  B 
  B459     1.0000 0.34350  0.84350  0.50000  Biso   1.000  B 
  B460     1.0000 0.38280  0.88280  0.50000  Biso   1.000  B 
  B461     1.0000 0.28510  0.88860  0.50000  Biso   1.000  B 
  B462     1.0000 0.38860  0.78510  0.50000  Biso   1.000  B 
  B463     1.0000 0.36740  0.92810  0.50000  Biso   1.000  B 
  B464     1.0000 0.42810  0.86740  0.50000  Biso   1.000  B 
  C161     1.0000 0.15416  0.94282  0.55608  Biso   1.000  C 
  C162     1.0000 0.19516  0.89102  0.49476  Biso   1.000  C 
  C163     1.0000 0.34297  0.56272  0.56433  Biso   1.000  C 
  C164     1.0000 0.31348  0.61131  0.49769  Biso   1.000  C 
  H321     1.0000 0.21482  0.89736  0.46017  Biso   1.000  H 
  C165     1.0000 0.20380  0.93071  0.53445  Biso   1.000  C 
  C166     1.0000 0.14100  0.89287  0.47994  Biso   1.000  C 
  C167     1.0000 0.11457  0.92428  0.51932  Biso   1.000  C 
  H322     1.0000 0.09467  0.95528  0.50064  Biso   1.000  H 
  H323     1.0000 0.08624  0.90106  0.54022  Biso   1.000  H 
  H324     1.0000 0.12420  0.85496  0.47947  Biso   1.000  H 
  H325     1.0000 0.13809  0.90954  0.44244  Biso   1.000  H 
  C168     1.0000 0.36911  0.61256  0.49433  Biso   1.000  C 
  H326     1.0000 0.38280  0.64840  0.50834  Biso   1.000  H 
  H327     1.0000 0.38208  0.60624  0.45640  Biso   1.000  H 
  C169     1.0000 0.38206  0.56787  0.52452  Biso   1.000  C 
  H328     1.0000 0.32516  0.52548  0.56148  Biso   1.000  H 
  C170     1.0000 0.30652  0.60034  0.55185  Biso   1.000  C 
  H329     1.0000 0.42145  0.56756  0.53625  Biso   1.000  H 
  H330     1.0000 0.37887  0.53951  0.49962  Biso   1.000  H 
  H331     1.0000 0.22019  0.96491  0.51686  Biso   1.000  H 
  H332     1.0000 0.22814  0.91929  0.56483  Biso   1.000  H 
  H333     1.0000 0.14917  0.92687  0.59279  Biso   1.000  H 
  H334     1.0000 0.31161  0.63641  0.57251  Biso   1.000  H 
  H335     1.0000 0.26827  0.58499  0.55922  Biso   1.000  H 
  H336     1.0000 0.29809  0.57957  0.47642  Biso   1.000  H 
  H337     1.0000 0.28859  0.66110  0.44046  Biso   1.000  H 
  H338     1.0000 0.20264  0.83943  0.55320  Biso   1.000  H 
  H339     1.0000 0.15312  0.98346  0.55953  Biso   1.000  H 
  H340     1.0000 0.35084  0.57029  0.60407  Biso   1.000  H 
  B465     1.0000 0.07190  0.36740  0.50000  Biso   1.000  B 
  B466     1.0000 0.11720  0.38280  0.50000  Biso   1.000  B 
  B467     1.0000 0.13260  0.42810  0.50000  Biso   1.000  B 
  B468     1.0000 0.15650  0.34350  0.50000  Biso   1.000  B 
  B469     1.0000 0.14470  0.29420  0.50000  Biso   1.000  B 
  B470     1.0000 0.20580  0.35530  0.50000  Biso   1.000  B 
  B471     1.0000 0.17950  0.25800  0.50000  Biso   1.000  B 
  B472     1.0000 0.11140  0.28510  0.50000  Biso   1.000  B 
  B473     1.0000 0.24200  0.32050  0.50000  Biso   1.000  B 
  B474     1.0000 0.21490  0.38860  0.50000  Biso   1.000  B 
  B475     1.0000 0.23070  0.26930  0.50000  Biso   1.000  B 
  B476     1.0000 0.26930  0.23070  0.50000  Biso   1.000  B 
  B477     1.0000 0.16950  0.22490  0.50000  Biso   1.000  B 
  B478     1.0000 0.25800  0.17950  0.50000  Biso   1.000  B 
  N35      1.0000 0.29133  0.33946  0.52096  Biso   1.000  N 
  B479     1.0000 0.32050  0.24200  0.50000  Biso   1.000  B 
  B480     1.0000 0.29420  0.14470  0.50000  Biso   1.000  B 
  N36      1.0000 0.20655  0.15986  0.48542  Biso   1.000  N 
  B481     1.0000 0.35530  0.20580  0.50000  Biso   1.000  B 
  B482     1.0000 0.33050  0.27510  0.50000  Biso   1.000  B 
  B483     1.0000 0.34350  0.15650  0.50000  Biso   1.000  B 
  B484     1.0000 0.38280  0.11720  0.50000  Biso   1.000  B 
  B485     1.0000 0.28510  0.11140  0.50000  Biso   1.000  B 
  B486     1.0000 0.38860  0.21490  0.50000  Biso   1.000  B 
  B487     1.0000 0.36740  0.07190  0.50000  Biso   1.000  B 
  B488     1.0000 0.42810  0.13260  0.50000  Biso   1.000  B 
  C171     1.0000 0.15416  0.05718  0.44392  Biso   1.000  C 
  C172     1.0000 0.19516  0.10897  0.50524  Biso   1.000  C 
  C173     1.0000 0.34297  0.43728  0.43567  Biso   1.000  C 
  C174     1.0000 0.31348  0.38869  0.50231  Biso   1.000  C 
  H341     1.0000 0.21482  0.10264  0.53983  Biso   1.000  H 
  C175     1.0000 0.20380  0.06929  0.46555  Biso   1.000  C 
  C176     1.0000 0.14100  0.10713  0.52006  Biso   1.000  C 
  C177     1.0000 0.11457  0.07572  0.48068  Biso   1.000  C 
  H342     1.0000 0.09467  0.04472  0.49936  Biso   1.000  H 
  H343     1.0000 0.08624  0.09894  0.45978  Biso   1.000  H 
  H344     1.0000 0.12420  0.14504  0.52053  Biso   1.000  H 
  H345     1.0000 0.13809  0.09046  0.55756  Biso   1.000  H 
  C178     1.0000 0.36911  0.38744  0.50567  Biso   1.000  C 
  H346     1.0000 0.38280  0.35160  0.49166  Biso   1.000  H 
  H347     1.0000 0.38208  0.39376  0.54360  Biso   1.000  H 
  C179     1.0000 0.38206  0.43213  0.47548  Biso   1.000  C 
  H348     1.0000 0.32516  0.47452  0.43852  Biso   1.000  H 
  C180     1.0000 0.30652  0.39966  0.44815  Biso   1.000  C 
  H349     1.0000 0.42145  0.43244  0.46375  Biso   1.000  H 
  H350     1.0000 0.37887  0.46049  0.50038  Biso   1.000  H 
  H351     1.0000 0.22019  0.03509  0.48314  Biso   1.000  H 
  H352     1.0000 0.22814  0.08071  0.43517  Biso   1.000  H 
  H353     1.0000 0.14917  0.07313  0.40721  Biso   1.000  H 
  H354     1.0000 0.31161  0.36359  0.42749  Biso   1.000  H 
  H355     1.0000 0.26827  0.41501  0.44078  Biso   1.000  H 
  H356     1.0000 0.29809  0.42043  0.52358  Biso   1.000  H 
  H357     1.0000 0.28859  0.33890  0.55954  Biso   1.000  H 
  H358     1.0000 0.20264  0.16057  0.44680  Biso   1.000  H 
  H359     1.0000 0.15312  0.01654  0.44047  Biso   1.000  H 
  H360     1.0000 0.35084  0.42971  0.39593  Biso   1.000  H 
  B489     1.0000 0.92810  0.36740  0.50000  Biso   1.000  B 
  B490     1.0000 0.88280  0.38280  0.50000  Biso   1.000  B 
  B491     1.0000 0.86740  0.42810  0.50000  Biso   1.000  B 
  B492     1.0000 0.84350  0.34350  0.50000  Biso   1.000  B 
  B493     1.0000 0.85530  0.29420  0.50000  Biso   1.000  B 
  B494     1.0000 0.79420  0.35530  0.50000  Biso   1.000  B 
  B495     1.0000 0.82050  0.25800  0.50000  Biso   1.000  B 
  B496     1.0000 0.88860  0.28510  0.50000  Biso   1.000  B 
  B497     1.0000 0.75800  0.32050  0.50000  Biso   1.000  B 
  B498     1.0000 0.78510  0.38860  0.50000  Biso   1.000  B 
  B499     1.0000 0.76930  0.26930  0.50000  Biso   1.000  B 
  B500     1.0000 0.73070  0.23070  0.50000  Biso   1.000  B 
  B501     1.0000 0.83050  0.22490  0.50000  Biso   1.000  B 
  B502     1.0000 0.74200  0.17950  0.50000  Biso   1.000  B 
  N37      1.0000 0.70867  0.33946  0.47904  Biso   1.000  N 
  B503     1.0000 0.67950  0.24200  0.50000  Biso   1.000  B 
  B504     1.0000 0.70580  0.14470  0.50000  Biso   1.000  B 
  N38      1.0000 0.79345  0.15986  0.51458  Biso   1.000  N 
  B505     1.0000 0.64470  0.20580  0.50000  Biso   1.000  B 
  B506     1.0000 0.66950  0.27510  0.50000  Biso   1.000  B 
  B507     1.0000 0.65650  0.15650  0.50000  Biso   1.000  B 
  B508     1.0000 0.61720  0.11720  0.50000  Biso   1.000  B 
  B509     1.0000 0.71490  0.11140  0.50000  Biso   1.000  B 
  B510     1.0000 0.61140  0.21490  0.50000  Biso   1.000  B 
  B511     1.0000 0.63260  0.07190  0.50000  Biso   1.000  B 
  B512     1.0000 0.57190  0.13260  0.50000  Biso   1.000  B 
  C181     1.0000 0.84584  0.05718  0.55608  Biso   1.000  C 
  C182     1.0000 0.80484  0.10897  0.49476  Biso   1.000  C 
  C183     1.0000 0.65703  0.43728  0.56433  Biso   1.000  C 
  C184     1.0000 0.68652  0.38869  0.49769  Biso   1.000  C 
  H361     1.0000 0.78518  0.10264  0.46017  Biso   1.000  H 
  C185     1.0000 0.79620  0.06929  0.53445  Biso   1.000  C 
  C186     1.0000 0.85901  0.10713  0.47994  Biso   1.000  C 
  C187     1.0000 0.88543  0.07572  0.51932  Biso   1.000  C 
  H362     1.0000 0.90534  0.04472  0.50064  Biso   1.000  H 
  H363     1.0000 0.91376  0.09894  0.54022  Biso   1.000  H 
  H364     1.0000 0.87580  0.14504  0.47947  Biso   1.000  H 
  H365     1.0000 0.86191  0.09046  0.44244  Biso   1.000  H 
  C188     1.0000 0.63089  0.38744  0.49433  Biso   1.000  C 
  H366     1.0000 0.61720  0.35160  0.50834  Biso   1.000  H 
  H367     1.0000 0.61792  0.39376  0.45640  Biso   1.000  H 
  C189     1.0000 0.61794  0.43213  0.52452  Biso   1.000  C 
  H368     1.0000 0.67484  0.47452  0.56148  Biso   1.000  H 
  C190     1.0000 0.69348  0.39966  0.55185  Biso   1.000  C 
  H369     1.0000 0.57855  0.43244  0.53625  Biso   1.000  H 
  H370     1.0000 0.62113  0.46049  0.49962  Biso   1.000  H 
  H371     1.0000 0.77981  0.03509  0.51686  Biso   1.000  H 
  H372     1.0000 0.77187  0.08071  0.56483  Biso   1.000  H 
  H373     1.0000 0.85083  0.07313  0.59279  Biso   1.000  H 
  H374     1.0000 0.68839  0.36359  0.57251  Biso   1.000  H 
  H375     1.0000 0.73173  0.41501  0.55922  Biso   1.000  H 
  H376     1.0000 0.70191  0.42043  0.47642  Biso   1.000  H 
  H377     1.0000 0.71141  0.33890  0.44046  Biso   1.000  H 
  H378     1.0000 0.79736  0.16057  0.55320  Biso   1.000  H 
  H379     1.0000 0.84688  0.01654  0.55953  Biso   1.000  H 
  H380     1.0000 0.64916  0.42971  0.60407  Biso   1.000  H 
  B513     1.0000 0.92810  0.63260  0.50000  Biso   1.000  B 
  B514     1.0000 0.88280  0.61720  0.50000  Biso   1.000  B 
  B515     1.0000 0.86740  0.57190  0.50000  Biso   1.000  B 
  B516     1.0000 0.84350  0.65650  0.50000  Biso   1.000  B 
  B517     1.0000 0.85530  0.70580  0.50000  Biso   1.000  B 
  B518     1.0000 0.79420  0.64470  0.50000  Biso   1.000  B 
  B519     1.0000 0.82050  0.74200  0.50000  Biso   1.000  B 
  B520     1.0000 0.88860  0.71490  0.50000  Biso   1.000  B 
  B521     1.0000 0.75800  0.67950  0.50000  Biso   1.000  B 
  B522     1.0000 0.78510  0.61140  0.50000  Biso   1.000  B 
  B523     1.0000 0.76930  0.73070  0.50000  Biso   1.000  B 
  B524     1.0000 0.73070  0.76930  0.50000  Biso   1.000  B 
  B525     1.0000 0.83050  0.77510  0.50000  Biso   1.000  B 
  B526     1.0000 0.74200  0.82050  0.50000  Biso   1.000  B 
  N39      1.0000 0.70867  0.66054  0.52096  Biso   1.000  N 
  B527     1.0000 0.67950  0.75800  0.50000  Biso   1.000  B 
  B528     1.0000 0.70580  0.85530  0.50000  Biso   1.000  B 
  N40      1.0000 0.79345  0.84014  0.48542  Biso   1.000  N 
  B529     1.0000 0.64470  0.79420  0.50000  Biso   1.000  B 
  B530     1.0000 0.66950  0.72490  0.50000  Biso   1.000  B 
  B531     1.0000 0.65650  0.84350  0.50000  Biso   1.000  B 
  B532     1.0000 0.61720  0.88280  0.50000  Biso   1.000  B 
  B533     1.0000 0.71490  0.88860  0.50000  Biso   1.000  B 
  B534     1.0000 0.61140  0.78510  0.50000  Biso   1.000  B 
  B535     1.0000 0.63260  0.92810  0.50000  Biso   1.000  B 
  B536     1.0000 0.57190  0.86740  0.50000  Biso   1.000  B 
  C191     1.0000 0.84584  0.94282  0.44392  Biso   1.000  C 
  C192     1.0000 0.80484  0.89102  0.50524  Biso   1.000  C 
  C193     1.0000 0.65703  0.56272  0.43567  Biso   1.000  C 
  C194     1.0000 0.68652  0.61131  0.50231  Biso   1.000  C 
  H381     1.0000 0.78518  0.89736  0.53983  Biso   1.000  H 
  C195     1.0000 0.79620  0.93071  0.46555  Biso   1.000  C 
  C196     1.0000 0.85901  0.89287  0.52006  Biso   1.000  C 
  C197     1.0000 0.88543  0.92428  0.48068  Biso   1.000  C 
  H382     1.0000 0.90534  0.95528  0.49936  Biso   1.000  H 
  H383     1.0000 0.91376  0.90106  0.45978  Biso   1.000  H 
  H384     1.0000 0.87580  0.85496  0.52053  Biso   1.000  H 
  H385     1.0000 0.86191  0.90954  0.55756  Biso   1.000  H 
  C198     1.0000 0.63089  0.61256  0.50567  Biso   1.000  C 
  H386     1.0000 0.61720  0.64840  0.49166  Biso   1.000  H 
  H387     1.0000 0.61792  0.60624  0.54360  Biso   1.000  H 
  C199     1.0000 0.61794  0.56787  0.47548  Biso   1.000  C 
  H388     1.0000 0.67484  0.52548  0.43852  Biso   1.000  H 
  C200     1.0000 0.69348  0.60034  0.44815  Biso   1.000  C 
  H389     1.0000 0.57855  0.56756  0.46375  Biso   1.000  H 
  H390     1.0000 0.62113  0.53951  0.50038  Biso   1.000  H 
  H391     1.0000 0.77981  0.96491  0.48314  Biso   1.000  H 
  H392     1.0000 0.77187  0.91929  0.43517  Biso   1.000  H 
  H393     1.0000 0.85083  0.92687  0.40721  Biso   1.000  H 
  H394     1.0000 0.68839  0.63641  0.42749  Biso   1.000  H 
  H395     1.0000 0.73173  0.58499  0.44078  Biso   1.000  H 
  H396     1.0000 0.70191  0.57957  0.52358  Biso   1.000  H 
  H397     1.0000 0.71141  0.66110  0.55954  Biso   1.000  H 
  H398     1.0000 0.79736  0.83943  0.44680  Biso   1.000  H 
  H399     1.0000 0.84688  0.98346  0.44047  Biso   1.000  H 
  H400     1.0000 0.64916  0.57029  0.39593  Biso   1.000  H 
  B537     1.0000 0.50000  0.07190  0.63260  Biso   1.000  B 
  B538     1.0000 0.50000  0.11720  0.61720  Biso   1.000  B 
  B539     1.0000 0.50000  0.13260  0.57190  Biso   1.000  B 
  B540     1.0000 0.50000  0.15650  0.65650  Biso   1.000  B 
  B541     1.0000 0.50000  0.14470  0.70580  Biso   1.000  B 
  B542     1.0000 0.50000  0.20580  0.64470  Biso   1.000  B 
  B543     1.0000 0.50000  0.17950  0.74200  Biso   1.000  B 
  B544     1.0000 0.50000  0.11140  0.71490  Biso   1.000  B 
  B545     1.0000 0.50000  0.24200  0.67950  Biso   1.000  B 
  B546     1.0000 0.50000  0.21490  0.61140  Biso   1.000  B 
  B547     1.0000 0.50000  0.23070  0.73070  Biso   1.000  B 
  B548     1.0000 0.50000  0.26930  0.76930  Biso   1.000  B 
  B549     1.0000 0.50000  0.16950  0.77510  Biso   1.000  B 
  B550     1.0000 0.50000  0.25800  0.82050  Biso   1.000  B 
  N41      1.0000 0.51349  0.29342  0.66056  Biso   1.000  N 
  B551     1.0000 0.50000  0.32050  0.75800  Biso   1.000  B 
  B552     1.0000 0.50000  0.29420  0.85530  Biso   1.000  B 
  N42      1.0000 0.51221  0.20597  0.84072  Biso   1.000  N 
  B553     1.0000 0.50000  0.35530  0.79420  Biso   1.000  B 
  B554     1.0000 0.50000  0.33050  0.72490  Biso   1.000  B 
  B555     1.0000 0.50000  0.34350  0.84350  Biso   1.000  B 
  B556     1.0000 0.50000  0.38280  0.88280  Biso   1.000  B 
  B557     1.0000 0.50000  0.28510  0.88860  Biso   1.000  B 
  B558     1.0000 0.50000  0.38860  0.78510  Biso   1.000  B 
  B559     1.0000 0.50000  0.36740  0.92810  Biso   1.000  B 
  B560     1.0000 0.50000  0.42810  0.86740  Biso   1.000  B 
  C201     1.0000 0.55695  0.15453  0.94448  Biso   1.000  C 
  C202     1.0000 0.49397  0.19545  0.89287  Biso   1.000  C 
  C203     1.0000 0.59996  0.36951  0.68412  Biso   1.000  C 
  C204     1.0000 0.56424  0.29717  0.64229  Biso   1.000  C 
  H401     1.0000 0.45976  0.21531  0.90004  Biso   1.000  H 
  C205     1.0000 0.53485  0.20419  0.93142  Biso   1.000  C 
  C206     1.0000 0.47838  0.14153  0.89784  Biso   1.000  C 
  C207     1.0000 0.52222  0.11500  0.92174  Biso   1.000  C 
  H402     1.0000 0.50829  0.08917  0.95000  Biso   1.000  H 
  H403     1.0000 0.54255  0.09256  0.89259  Biso   1.000  H 
  H404     1.0000 0.47122  0.12534  0.86037  Biso   1.000  H 
  H405     1.0000 0.44443  0.13867  0.92132  Biso   1.000  H 
  C208     1.0000 0.56498  0.33907  0.60432  Biso   1.000  C 
  H406     1.0000 0.53251  0.33932  0.57715  Biso   1.000  H 
  H407     1.0000 0.59822  0.33106  0.58350  Biso   1.000  H 
  C209     1.0000 0.56636  0.38652  0.63930  Biso   1.000  C 
  H408     1.0000 0.64003  0.38163  0.67816  Biso   1.000  H 
  C210     1.0000 0.60029  0.31224  0.68441  Biso   1.000  C 
  H409     1.0000 0.52643  0.39330  0.64890  Biso   1.000  H 
  H410     1.0000 0.57928  0.41965  0.62203  Biso   1.000  H 
  H411     1.0000 0.51910  0.22122  0.96583  Biso   1.000  H 
  H412     1.0000 0.56531  0.22787  0.91846  Biso   1.000  H 
  H413     1.0000 0.59494  0.15169  0.93132  Biso   1.000  H 
  H414     1.0000 0.59116  0.29158  0.71913  Biso   1.000  H 
  H415     1.0000 0.63760  0.30242  0.67199  Biso   1.000  H 
  H416     1.0000 0.57716  0.26039  0.62621  Biso   1.000  H 
  H417     1.0000 0.48693  0.29980  0.63314  Biso   1.000  H 
  H418     1.0000 0.55076  0.20057  0.83903  Biso   1.000  H 
  H419     1.0000 0.55810  0.15132  0.98534  Biso   1.000  H 
  H420     1.0000 0.58328  0.38119  0.71992  Biso   1.000  H 
  B561     1.0000 0.50000  0.07190  0.36740  Biso   1.000  B 
  B562     1.0000 0.50000  0.11720  0.38280  Biso   1.000  B 
  B563     1.0000 0.50000  0.13260  0.42810  Biso   1.000  B 
  B564     1.0000 0.50000  0.15650  0.34350  Biso   1.000  B 
  B565     1.0000 0.50000  0.14470  0.29420  Biso   1.000  B 
  B566     1.0000 0.50000  0.20580  0.35530  Biso   1.000  B 
  B567     1.0000 0.50000  0.17950  0.25800  Biso   1.000  B 
  B568     1.0000 0.50000  0.11140  0.28510  Biso   1.000  B 
  B569     1.0000 0.50000  0.24200  0.32050  Biso   1.000  B 
  B570     1.0000 0.50000  0.21490  0.38860  Biso   1.000  B 
  B571     1.0000 0.50000  0.23070  0.26930  Biso   1.000  B 
  B572     1.0000 0.50000  0.26930  0.23070  Biso   1.000  B 
  B573     1.0000 0.50000  0.16950  0.22490  Biso   1.000  B 
  B574     1.0000 0.50000  0.25800  0.17950  Biso   1.000  B 
  N43      1.0000 0.48651  0.29342  0.33944  Biso   1.000  N 
  B575     1.0000 0.50000  0.32050  0.24200  Biso   1.000  B 
  B576     1.0000 0.50000  0.29420  0.14470  Biso   1.000  B 
  N44      1.0000 0.48779  0.20597  0.15928  Biso   1.000  N 
  B577     1.0000 0.50000  0.35530  0.20580  Biso   1.000  B 
  B578     1.0000 0.50000  0.33050  0.27510  Biso   1.000  B 
  B579     1.0000 0.50000  0.34350  0.15650  Biso   1.000  B 
  B580     1.0000 0.50000  0.38280  0.11720  Biso   1.000  B 
  B581     1.0000 0.50000  0.28510  0.11140  Biso   1.000  B 
  B582     1.0000 0.50000  0.38860  0.21490  Biso   1.000  B 
  B583     1.0000 0.50000  0.36740  0.07190  Biso   1.000  B 
  B584     1.0000 0.50000  0.42810  0.13260  Biso   1.000  B 
  C211     1.0000 0.44305  0.15453  0.05552  Biso   1.000  C 
  C212     1.0000 0.50603  0.19545  0.10714  Biso   1.000  C 
  C213     1.0000 0.40004  0.36951  0.31588  Biso   1.000  C 
  C214     1.0000 0.43576  0.29717  0.35771  Biso   1.000  C 
  H421     1.0000 0.54024  0.21531  0.09996  Biso   1.000  H 
  C215     1.0000 0.46515  0.20419  0.06857  Biso   1.000  C 
  C216     1.0000 0.52162  0.14153  0.10216  Biso   1.000  C 
  C217     1.0000 0.47778  0.11500  0.07826  Biso   1.000  C 
  H422     1.0000 0.49171  0.08917  0.05000  Biso   1.000  H 
  H423     1.0000 0.45745  0.09256  0.10741  Biso   1.000  H 
  H424     1.0000 0.52878  0.12534  0.13963  Biso   1.000  H 
  H425     1.0000 0.55557  0.13867  0.07868  Biso   1.000  H 
  C218     1.0000 0.43502  0.33907  0.39568  Biso   1.000  C 
  H426     1.0000 0.46749  0.33932  0.42285  Biso   1.000  H 
  H427     1.0000 0.40178  0.33106  0.41650  Biso   1.000  H 
  C219     1.0000 0.43364  0.38652  0.36071  Biso   1.000  C 
  H428     1.0000 0.35997  0.38163  0.32183  Biso   1.000  H 
  C220     1.0000 0.39971  0.31224  0.31559  Biso   1.000  C 
  H429     1.0000 0.47357  0.39330  0.35110  Biso   1.000  H 
  H430     1.0000 0.42072  0.41965  0.37797  Biso   1.000  H 
  H431     1.0000 0.48090  0.22122  0.03417  Biso   1.000  H 
  H432     1.0000 0.43469  0.22787  0.08153  Biso   1.000  H 
  H433     1.0000 0.40506  0.15169  0.06868  Biso   1.000  H 
  H434     1.0000 0.40884  0.29158  0.28087  Biso   1.000  H 
  H435     1.0000 0.36240  0.30242  0.32801  Biso   1.000  H 
  H436     1.0000 0.42284  0.26039  0.37379  Biso   1.000  H 
  H437     1.0000 0.51307  0.29980  0.36686  Biso   1.000  H 
  H438     1.0000 0.44924  0.20057  0.16097  Biso   1.000  H 
  H439     1.0000 0.44190  0.15132  0.01466  Biso   1.000  H 
  H440     1.0000 0.41672  0.38119  0.28008  Biso   1.000  H 
  B585     1.0000 0.50000  0.92810  0.36740  Biso   1.000  B 
  B586     1.0000 0.50000  0.88280  0.38280  Biso   1.000  B 
  B587     1.0000 0.50000  0.86740  0.42810  Biso   1.000  B 
  B588     1.0000 0.50000  0.84350  0.34350  Biso   1.000  B 
  B589     1.0000 0.50000  0.85530  0.29420  Biso   1.000  B 
  B590     1.0000 0.50000  0.79420  0.35530  Biso   1.000  B 
  B591     1.0000 0.50000  0.82050  0.25800  Biso   1.000  B 
  B592     1.0000 0.50000  0.88860  0.28510  Biso   1.000  B 
  B593     1.0000 0.50000  0.75800  0.32050  Biso   1.000  B 
  B594     1.0000 0.50000  0.78510  0.38860  Biso   1.000  B 
  B595     1.0000 0.50000  0.76930  0.26930  Biso   1.000  B 
  B596     1.0000 0.50000  0.73070  0.23070  Biso   1.000  B 
  B597     1.0000 0.50000  0.83050  0.22490  Biso   1.000  B 
  B598     1.0000 0.50000  0.74200  0.17950  Biso   1.000  B 
  N45      1.0000 0.51349  0.70658  0.33944  Biso   1.000  N 
  B599     1.0000 0.50000  0.67950  0.24200  Biso   1.000  B 
  B600     1.0000 0.50000  0.70580  0.14470  Biso   1.000  B 
  N46      1.0000 0.51221  0.79403  0.15928  Biso   1.000  N 
  B601     1.0000 0.50000  0.64470  0.20580  Biso   1.000  B 
  B602     1.0000 0.50000  0.66950  0.27510  Biso   1.000  B 
  B603     1.0000 0.50000  0.65650  0.15650  Biso   1.000  B 
  B604     1.0000 0.50000  0.61720  0.11720  Biso   1.000  B 
  B605     1.0000 0.50000  0.71490  0.11140  Biso   1.000  B 
  B606     1.0000 0.50000  0.61140  0.21490  Biso   1.000  B 
  B607     1.0000 0.50000  0.63260  0.07190  Biso   1.000  B 
  B608     1.0000 0.50000  0.57190  0.13260  Biso   1.000  B 
  C221     1.0000 0.55695  0.84547  0.05552  Biso   1.000  C 
  C222     1.0000 0.49397  0.80455  0.10714  Biso   1.000  C 
  C223     1.0000 0.59996  0.63049  0.31588  Biso   1.000  C 
  C224     1.0000 0.56424  0.70283  0.35771  Biso   1.000  C 
  H441     1.0000 0.45976  0.78469  0.09996  Biso   1.000  H 
  C225     1.0000 0.53485  0.79581  0.06857  Biso   1.000  C 
  C226     1.0000 0.47838  0.85847  0.10216  Biso   1.000  C 
  C227     1.0000 0.52222  0.88500  0.07826  Biso   1.000  C 
  H442     1.0000 0.50829  0.91083  0.05000  Biso   1.000  H 
  H443     1.0000 0.54255  0.90744  0.10741  Biso   1.000  H 
  H444     1.0000 0.47122  0.87465  0.13963  Biso   1.000  H 
  H445     1.0000 0.44443  0.86133  0.07868  Biso   1.000  H 
  C228     1.0000 0.56498  0.66092  0.39568  Biso   1.000  C 
  H446     1.0000 0.53251  0.66067  0.42285  Biso   1.000  H 
  H447     1.0000 0.59822  0.66894  0.41650  Biso   1.000  H 
  C229     1.0000 0.56636  0.61348  0.36071  Biso   1.000  C 
  H448     1.0000 0.64003  0.61837  0.32183  Biso   1.000  H 
  C230     1.0000 0.60029  0.68776  0.31559  Biso   1.000  C 
  H449     1.0000 0.52643  0.60670  0.35110  Biso   1.000  H 
  H450     1.0000 0.57928  0.58035  0.37797  Biso   1.000  H 
  H451     1.0000 0.51910  0.77878  0.03417  Biso   1.000  H 
  H452     1.0000 0.56531  0.77213  0.08153  Biso   1.000  H 
  H453     1.0000 0.59494  0.84831  0.06868  Biso   1.000  H 
  H454     1.0000 0.59116  0.70842  0.28087  Biso   1.000  H 
  H455     1.0000 0.63760  0.69758  0.32801  Biso   1.000  H 
  H456     1.0000 0.57716  0.73961  0.37379  Biso   1.000  H 
  H457     1.0000 0.48693  0.70020  0.36686  Biso   1.000  H 
  H458     1.0000 0.55076  0.79942  0.16097  Biso   1.000  H 
  H459     1.0000 0.55810  0.84868  0.01466  Biso   1.000  H 
  H460     1.0000 0.58328  0.61881  0.28008  Biso   1.000  H 
  B609     1.0000 0.50000  0.92810  0.63260  Biso   1.000  B 
  B610     1.0000 0.50000  0.88280  0.61720  Biso   1.000  B 
  B611     1.0000 0.50000  0.86740  0.57190  Biso   1.000  B 
  B612     1.0000 0.50000  0.84350  0.65650  Biso   1.000  B 
  B613     1.0000 0.50000  0.85530  0.70580  Biso   1.000  B 
  B614     1.0000 0.50000  0.79420  0.64470  Biso   1.000  B 
  B615     1.0000 0.50000  0.82050  0.74200  Biso   1.000  B 
  B616     1.0000 0.50000  0.88860  0.71490  Biso   1.000  B 
  B617     1.0000 0.50000  0.75800  0.67950  Biso   1.000  B 
  B618     1.0000 0.50000  0.78510  0.61140  Biso   1.000  B 
  B619     1.0000 0.50000  0.76930  0.73070  Biso   1.000  B 
  B620     1.0000 0.50000  0.73070  0.76930  Biso   1.000  B 
  B621     1.0000 0.50000  0.83050  0.77510  Biso   1.000  B 
  B622     1.0000 0.50000  0.74200  0.82050  Biso   1.000  B 
  N47      1.0000 0.48651  0.70658  0.66056  Biso   1.000  N 
  B623     1.0000 0.50000  0.67950  0.75800  Biso   1.000  B 
  B624     1.0000 0.50000  0.70580  0.85530  Biso   1.000  B 
  N48      1.0000 0.48779  0.79403  0.84072  Biso   1.000  N 
  B625     1.0000 0.50000  0.64470  0.79420  Biso   1.000  B 
  B626     1.0000 0.50000  0.66950  0.72490  Biso   1.000  B 
  B627     1.0000 0.50000  0.65650  0.84350  Biso   1.000  B 
  B628     1.0000 0.50000  0.61720  0.88280  Biso   1.000  B 
  B629     1.0000 0.50000  0.71490  0.88860  Biso   1.000  B 
  B630     1.0000 0.50000  0.61140  0.78510  Biso   1.000  B 
  B631     1.0000 0.50000  0.63260  0.92810  Biso   1.000  B 
  B632     1.0000 0.50000  0.57190  0.86740  Biso   1.000  B 
  C231     1.0000 0.44305  0.84547  0.94448  Biso   1.000  C 
  C232     1.0000 0.50603  0.80455  0.89287  Biso   1.000  C 
  C233     1.0000 0.40004  0.63049  0.68412  Biso   1.000  C 
  C234     1.0000 0.43576  0.70283  0.64229  Biso   1.000  C 
  H461     1.0000 0.54024  0.78469  0.90004  Biso   1.000  H 
  C235     1.0000 0.46515  0.79581  0.93142  Biso   1.000  C 
  C236     1.0000 0.52162  0.85847  0.89784  Biso   1.000  C 
  C237     1.0000 0.47778  0.88500  0.92174  Biso   1.000  C 
  H462     1.0000 0.49171  0.91083  0.95000  Biso   1.000  H 
  H463     1.0000 0.45745  0.90744  0.89259  Biso   1.000  H 
  H464     1.0000 0.52878  0.87465  0.86037  Biso   1.000  H 
  H465     1.0000 0.55557  0.86133  0.92132  Biso   1.000  H 
  C238     1.0000 0.43502  0.66092  0.60432  Biso   1.000  C 
  H466     1.0000 0.46749  0.66067  0.57715  Biso   1.000  H 
  H467     1.0000 0.40178  0.66894  0.58350  Biso   1.000  H 
  C239     1.0000 0.43364  0.61348  0.63930  Biso   1.000  C 
  H468     1.0000 0.35997  0.61837  0.67816  Biso   1.000  H 
  C240     1.0000 0.39971  0.68776  0.68441  Biso   1.000  C 
  H469     1.0000 0.47357  0.60670  0.64890  Biso   1.000  H 
  H470     1.0000 0.42072  0.58035  0.62203  Biso   1.000  H 
  H471     1.0000 0.48090  0.77878  0.96583  Biso   1.000  H 
  H472     1.0000 0.43469  0.77213  0.91846  Biso   1.000  H 
  H473     1.0000 0.40506  0.84831  0.93132  Biso   1.000  H 
  H474     1.0000 0.40884  0.70842  0.71913  Biso   1.000  H 
  H475     1.0000 0.36240  0.69758  0.67199  Biso   1.000  H 
  H476     1.0000 0.42284  0.73961  0.62621  Biso   1.000  H 
  H477     1.0000 0.51307  0.70020  0.63314  Biso   1.000  H 
  H478     1.0000 0.44924  0.79942  0.83903  Biso   1.000  H 
  H479     1.0000 0.44190  0.84868  0.98534  Biso   1.000  H 
  H480     1.0000 0.41672  0.61881  0.71992  Biso   1.000  H 
