data_image0
_cell_length_a       26.896
_cell_length_b       26.896
_cell_length_c       26.896
_cell_angle_alpha    90
_cell_angle_beta     90
_cell_angle_gamma    90

_symmetry_space_group_name_H-M    "P 1"
_symmetry_int_tables_number       1

loop_
  _symmetry_equiv_pos_as_xyz
  'x, y, z'

loop_
  _atom_site_label
  _atom_site_occupancy
  _atom_site_fract_x
  _atom_site_fract_y
  _atom_site_fract_z
  _atom_site_thermal_displace_type
  _atom_site_B_iso_or_equiv
  _atom_site_type_symbol
  B1       1.0000 0.09204  0.00000  0.00000  Biso   1.000  B 
  B2       1.0000 0.90796  0.00000  0.00000  Biso   1.000  B 
  B3       1.0000 0.00000  0.09204  0.00000  Biso   1.000  B 
  B4       1.0000 0.00000  0.90796  0.00000  Biso   1.000  B 
  B5       1.0000 0.00000  0.00000  0.09204  Biso   1.000  B 
  B6       1.0000 0.00000  0.00000  0.90796  Biso   1.000  B 
  B7       1.0000 0.09204  0.50000  0.50000  Biso   1.000  B 
  B8       1.0000 0.90796  0.50000  0.50000  Biso   1.000  B 
  B9       1.0000 0.00000  0.59204  0.50000  Biso   1.000  B 
  B10      1.0000 0.00000  0.40796  0.50000  Biso   1.000  B 
  B11      1.0000 0.00000  0.50000  0.59204  Biso   1.000  B 
  B12      1.0000 0.00000  0.50000  0.40796  Biso   1.000  B 
  B13      1.0000 0.59204  0.00000  0.50000  Biso   1.000  B 
  B14      1.0000 0.40796  0.00000  0.50000  Biso   1.000  B 
  B15      1.0000 0.50000  0.09204  0.50000  Biso   1.000  B 
  B16      1.0000 0.50000  0.90796  0.50000  Biso   1.000  B 
  B17      1.0000 0.50000  0.00000  0.59204  Biso   1.000  B 
  B18      1.0000 0.50000  0.00000  0.40796  Biso   1.000  B 
  B19      1.0000 0.59204  0.50000  0.00000  Biso   1.000  B 
  B20      1.0000 0.40796  0.50000  0.00000  Biso   1.000  B 
  B21      1.0000 0.50000  0.59204  0.00000  Biso   1.000  B 
  B22      1.0000 0.50000  0.40796  0.00000  Biso   1.000  B 
  B23      1.0000 0.50000  0.50000  0.09204  Biso   1.000  B 
  B24      1.0000 0.50000  0.50000  0.90796  Biso   1.000  B 
  B25      1.0000 0.04540  0.04540  0.04540  Biso   1.000  B 
  B26      1.0000 0.95460  0.95460  0.04540  Biso   1.000  B 
  B27      1.0000 0.95460  0.04540  0.95460  Biso   1.000  B 
  B28      1.0000 0.04540  0.95460  0.95460  Biso   1.000  B 
  B29      1.0000 0.04540  0.04540  0.95460  Biso   1.000  B 
  B30      1.0000 0.95460  0.95460  0.95460  Biso   1.000  B 
  B31      1.0000 0.04540  0.95460  0.04540  Biso   1.000  B 
  B32      1.0000 0.95460  0.04540  0.04540  Biso   1.000  B 
  B33      1.0000 0.04540  0.54540  0.54540  Biso   1.000  B 
  B34      1.0000 0.95460  0.45460  0.54540  Biso   1.000  B 
  B35      1.0000 0.95460  0.54540  0.45460  Biso   1.000  B 
  B36      1.0000 0.04540  0.45460  0.45460  Biso   1.000  B 
  B37      1.0000 0.04540  0.54540  0.45460  Biso   1.000  B 
  B38      1.0000 0.95460  0.45460  0.45460  Biso   1.000  B 
  B39      1.0000 0.04540  0.45460  0.54540  Biso   1.000  B 
  B40      1.0000 0.95460  0.54540  0.54540  Biso   1.000  B 
  B41      1.0000 0.54540  0.04540  0.54540  Biso   1.000  B 
  B42      1.0000 0.45460  0.95460  0.54540  Biso   1.000  B 
  B43      1.0000 0.45460  0.04540  0.45460  Biso   1.000  B 
  B44      1.0000 0.54540  0.95460  0.45460  Biso   1.000  B 
  B45      1.0000 0.54540  0.04540  0.45460  Biso   1.000  B 
  B46      1.0000 0.45460  0.95460  0.45460  Biso   1.000  B 
  B47      1.0000 0.54540  0.95460  0.54540  Biso   1.000  B 
  B48      1.0000 0.45460  0.04540  0.54540  Biso   1.000  B 
  B49      1.0000 0.54540  0.54540  0.04540  Biso   1.000  B 
  B50      1.0000 0.45460  0.45460  0.04540  Biso   1.000  B 
  B51      1.0000 0.45460  0.54540  0.95460  Biso   1.000  B 
  B52      1.0000 0.54540  0.45460  0.95460  Biso   1.000  B 
  B53      1.0000 0.54540  0.54540  0.95460  Biso   1.000  B 
  B54      1.0000 0.45460  0.45460  0.95460  Biso   1.000  B 
  B55      1.0000 0.54540  0.45460  0.04540  Biso   1.000  B 
  B56      1.0000 0.45460  0.54540  0.04540  Biso   1.000  B 
  B57      1.0000 0.13260  0.00000  0.07190  Biso   1.000  B 
  B58      1.0000 0.11720  0.00000  0.11720  Biso   1.000  B 
  B59      1.0000 0.07190  0.00000  0.13260  Biso   1.000  B 
  B60      1.0000 0.15650  0.00000  0.15650  Biso   1.000  B 
  B61      1.0000 0.20580  0.00000  0.14470  Biso   1.000  B 
  B62      1.0000 0.14470  0.00000  0.20580  Biso   1.000  B 
  B63      1.0000 0.24200  0.00000  0.17950  Biso   1.000  B 
  B64      1.0000 0.21490  0.00000  0.11140  Biso   1.000  B 
  B65      1.0000 0.17950  0.00000  0.24200  Biso   1.000  B 
  O1       1.0000 0.09386  0.01256  0.21950  Biso   1.000  O 
  B66      1.0000 0.23070  0.00000  0.23070  Biso   1.000  B 
  B67      1.0000 0.26930  0.00000  0.26930  Biso   1.000  B 
  B68      1.0000 0.27510  0.00000  0.16950  Biso   1.000  B 
  B69      1.0000 0.32050  0.00000  0.25800  Biso   1.000  B 
  B70      1.0000 0.16950  0.00000  0.27510  Biso   1.000  B 
  B71      1.0000 0.25800  0.00000  0.32050  Biso   1.000  B 
  B72      1.0000 0.35530  0.00000  0.29420  Biso   1.000  B 
  B73      1.0000 0.33050  0.00000  0.22490  Biso   1.000  B 
  B74      1.0000 0.29420  0.00000  0.35530  Biso   1.000  B 
  B75      1.0000 0.22490  0.00000  0.33050  Biso   1.000  B 
  B76      1.0000 0.34350  0.00000  0.34350  Biso   1.000  B 
  B77      1.0000 0.38280  0.00000  0.38280  Biso   1.000  B 
  O2       1.0000 0.40854  0.99983  0.27874  Biso   1.000  O 
  B78      1.0000 0.28510  0.00000  0.38860  Biso   1.000  B 
  B79      1.0000 0.42810  0.00000  0.36740  Biso   1.000  B 
  B80      1.0000 0.36740  0.00000  0.42810  Biso   1.000  B 
  C1       1.0000 0.42195  0.97621  0.23358  Biso   1.000  C 
  C2       1.0000 0.06915  0.96753  0.23032  Biso   1.000  C 
  C3       1.0000 0.43309  0.01938  0.19758  Biso   1.000  C 
  H1       1.0000 0.39118  0.94970  0.21796  Biso   1.000  H 
  H2       1.0000 0.45785  0.95647  0.23927  Biso   1.000  H 
  H3       1.0000 0.42058  0.05342  0.21283  Biso   1.000  H 
  C4       1.0000 0.41083  0.00920  0.14317  Biso   1.000  C 
  H4       1.0000 0.47270  0.02486  0.19209  Biso   1.000  H 
  H5       1.0000 0.37657  0.98606  0.14644  Biso   1.000  H 
  H6       1.0000 0.43725  0.98795  0.12039  Biso   1.000  H 
  C5       1.0000 0.40234  0.05707  0.11156  Biso   1.000  C 
  C6       1.0000 0.07483  0.96077  0.28513  Biso   1.000  C 
  H7       1.0000 0.08236  0.93515  0.20778  Biso   1.000  H 
  H8       1.0000 0.02854  0.97340  0.22238  Biso   1.000  H 
  C7       1.0000 0.09332  0.91037  0.29760  Biso   1.000  C 
  H9       1.0000 0.03720  0.96402  0.30179  Biso   1.000  H 
  H10      1.0000 0.09778  0.98936  0.30279  Biso   1.000  H 
  H11      1.0000 0.06588  0.88365  0.28013  Biso   1.000  H 
  H12      1.0000 0.09294  0.90531  0.33842  Biso   1.000  H 
  C8       1.0000 0.14404  0.89521  0.27850  Biso   1.000  C 
  H13      1.0000 0.43505  0.07740  0.11090  Biso   1.000  H 
  C9       1.0000 0.38541  0.04494  0.05953  Biso   1.000  C 
  H14      1.0000 0.37223  0.07932  0.13270  Biso   1.000  H 
  H15      1.0000 0.14797  0.89799  0.23689  Biso   1.000  H 
  C10      1.0000 0.15619  0.84218  0.29328  Biso   1.000  C 
  H16      1.0000 0.17320  0.91854  0.29539  Biso   1.000  H 
  H17      1.0000 0.12922  0.81613  0.27612  Biso   1.000  H 
  H18      1.0000 0.15680  0.83843  0.33448  Biso   1.000  H 
  H19      1.0000 0.19417  0.83315  0.27816  Biso   1.000  H 
  H20      1.0000 0.41961  0.03553  0.03774  Biso   1.000  H 
  H21      1.0000 0.36510  0.07845  0.04078  Biso   1.000  H 
  H22      1.0000 0.35974  0.01390  0.05733  Biso   1.000  H 
  B81      1.0000 0.86740  0.00000  0.07190  Biso   1.000  B 
  B82      1.0000 0.88280  0.00000  0.11720  Biso   1.000  B 
  B83      1.0000 0.92810  0.00000  0.13260  Biso   1.000  B 
  B84      1.0000 0.84350  0.00000  0.15650  Biso   1.000  B 
  B85      1.0000 0.79420  0.00000  0.14470  Biso   1.000  B 
  B86      1.0000 0.85530  0.00000  0.20580  Biso   1.000  B 
  B87      1.0000 0.75800  0.00000  0.17950  Biso   1.000  B 
  B88      1.0000 0.78510  0.00000  0.11140  Biso   1.000  B 
  B89      1.0000 0.82050  0.00000  0.24200  Biso   1.000  B 
  O3       1.0000 0.90614  0.98743  0.21951  Biso   1.000  O 
  B90      1.0000 0.76930  0.00000  0.23070  Biso   1.000  B 
  B91      1.0000 0.73070  0.00000  0.26930  Biso   1.000  B 
  B92      1.0000 0.72490  0.00000  0.16950  Biso   1.000  B 
  B93      1.0000 0.67950  0.00000  0.25800  Biso   1.000  B 
  B94      1.0000 0.83050  0.00000  0.27510  Biso   1.000  B 
  B95      1.0000 0.74200  0.00000  0.32050  Biso   1.000  B 
  B96      1.0000 0.64470  0.00000  0.29420  Biso   1.000  B 
  B97      1.0000 0.66950  0.00000  0.22490  Biso   1.000  B 
  B98      1.0000 0.70580  0.00000  0.35530  Biso   1.000  B 
  B99      1.0000 0.77510  0.00000  0.33050  Biso   1.000  B 
  B100     1.0000 0.65650  0.00000  0.34350  Biso   1.000  B 
  B101     1.0000 0.61720  0.00000  0.38280  Biso   1.000  B 
  O4       1.0000 0.59146  0.00017  0.27874  Biso   1.000  O 
  B102     1.0000 0.71490  0.00000  0.38860  Biso   1.000  B 
  B103     1.0000 0.57190  0.00000  0.36740  Biso   1.000  B 
  B104     1.0000 0.63260  0.00000  0.42810  Biso   1.000  B 
  C11      1.0000 0.57805  0.02379  0.23358  Biso   1.000  C 
  C12      1.0000 0.93084  0.03247  0.23033  Biso   1.000  C 
  C13      1.0000 0.56691  0.98062  0.19758  Biso   1.000  C 
  H23      1.0000 0.60882  0.05030  0.21796  Biso   1.000  H 
  H24      1.0000 0.54215  0.04353  0.23927  Biso   1.000  H 
  H25      1.0000 0.57942  0.94658  0.21283  Biso   1.000  H 
  C14      1.0000 0.58917  0.99079  0.14317  Biso   1.000  C 
  H26      1.0000 0.52730  0.97514  0.19209  Biso   1.000  H 
  H27      1.0000 0.62343  0.01394  0.14644  Biso   1.000  H 
  H28      1.0000 0.56275  0.01204  0.12038  Biso   1.000  H 
  C15      1.0000 0.59766  0.94293  0.11156  Biso   1.000  C 
  C16      1.0000 0.92515  0.03926  0.28514  Biso   1.000  C 
  H29      1.0000 0.91764  0.06484  0.20777  Biso   1.000  H 
  H30      1.0000 0.97147  0.02660  0.22240  Biso   1.000  H 
  C17      1.0000 0.90666  0.08967  0.29758  Biso   1.000  C 
  H31      1.0000 0.96276  0.03602  0.30182  Biso   1.000  H 
  H32      1.0000 0.90219  0.01068  0.30281  Biso   1.000  H 
  H33      1.0000 0.93407  0.11638  0.28006  Biso   1.000  H 
  H34      1.0000 0.90706  0.09478  0.33840  Biso   1.000  H 
  C18      1.0000 0.85592  0.10479  0.27851  Biso   1.000  C 
  H35      1.0000 0.56495  0.92260  0.11090  Biso   1.000  H 
  C19      1.0000 0.61459  0.95506  0.05953  Biso   1.000  C 
  H36      1.0000 0.62777  0.92068  0.13271  Biso   1.000  H 
  H37      1.0000 0.85197  0.10201  0.23690  Biso   1.000  H 
  C20      1.0000 0.84372  0.15781  0.29330  Biso   1.000  C 
  H38      1.0000 0.82678  0.08144  0.29541  Biso   1.000  H 
  H39      1.0000 0.87053  0.18390  0.27594  Biso   1.000  H 
  H40      1.0000 0.84334  0.16161  0.33450  Biso   1.000  H 
  H41      1.0000 0.80563  0.16673  0.27840  Biso   1.000  H 
  H42      1.0000 0.58039  0.96449  0.03775  Biso   1.000  H 
  H43      1.0000 0.63489  0.92155  0.04078  Biso   1.000  H 
  H44      1.0000 0.64027  0.98609  0.05734  Biso   1.000  H 
  B105     1.0000 0.86740  0.00000  0.92810  Biso   1.000  B 
  B106     1.0000 0.88280  0.00000  0.88280  Biso   1.000  B 
  B107     1.0000 0.92810  0.00000  0.86740  Biso   1.000  B 
  B108     1.0000 0.84350  0.00000  0.84350  Biso   1.000  B 
  B109     1.0000 0.79420  0.00000  0.85530  Biso   1.000  B 
  B110     1.0000 0.85530  0.00000  0.79420  Biso   1.000  B 
  B111     1.0000 0.75800  0.00000  0.82050  Biso   1.000  B 
  B112     1.0000 0.78510  0.00000  0.88860  Biso   1.000  B 
  B113     1.0000 0.82050  0.00000  0.75800  Biso   1.000  B 
  O5       1.0000 0.90614  0.01256  0.78050  Biso   1.000  O 
  B114     1.0000 0.76930  0.00000  0.76930  Biso   1.000  B 
  B115     1.0000 0.73070  0.00000  0.73070  Biso   1.000  B 
  B116     1.0000 0.72490  0.00000  0.83050  Biso   1.000  B 
  B117     1.0000 0.67950  0.00000  0.74200  Biso   1.000  B 
  B118     1.0000 0.83050  0.00000  0.72490  Biso   1.000  B 
  B119     1.0000 0.74200  0.00000  0.67950  Biso   1.000  B 
  B120     1.0000 0.64470  0.00000  0.70580  Biso   1.000  B 
  B121     1.0000 0.66950  0.00000  0.77510  Biso   1.000  B 
  B122     1.0000 0.70580  0.00000  0.64470  Biso   1.000  B 
  B123     1.0000 0.77510  0.00000  0.66950  Biso   1.000  B 
  B124     1.0000 0.65650  0.00000  0.65650  Biso   1.000  B 
  B125     1.0000 0.61720  0.00000  0.61720  Biso   1.000  B 
  O6       1.0000 0.59146  0.99983  0.72126  Biso   1.000  O 
  B126     1.0000 0.71490  0.00000  0.61140  Biso   1.000  B 
  B127     1.0000 0.57190  0.00000  0.63260  Biso   1.000  B 
  B128     1.0000 0.63260  0.00000  0.57190  Biso   1.000  B 
  C21      1.0000 0.57805  0.97621  0.76642  Biso   1.000  C 
  C22      1.0000 0.93085  0.96753  0.76968  Biso   1.000  C 
  C23      1.0000 0.56691  0.01938  0.80242  Biso   1.000  C 
  H45      1.0000 0.60882  0.94970  0.78204  Biso   1.000  H 
  H46      1.0000 0.54215  0.95647  0.76073  Biso   1.000  H 
  H47      1.0000 0.57942  0.05342  0.78717  Biso   1.000  H 
  C24      1.0000 0.58917  0.00920  0.85683  Biso   1.000  C 
  H48      1.0000 0.52730  0.02486  0.80791  Biso   1.000  H 
  H49      1.0000 0.62343  0.98606  0.85356  Biso   1.000  H 
  H50      1.0000 0.56275  0.98795  0.87961  Biso   1.000  H 
  C25      1.0000 0.59766  0.05707  0.88844  Biso   1.000  C 
  C26      1.0000 0.92517  0.96077  0.71487  Biso   1.000  C 
  H51      1.0000 0.91765  0.93515  0.79223  Biso   1.000  H 
  H52      1.0000 0.97146  0.97340  0.77762  Biso   1.000  H 
  C27      1.0000 0.90668  0.91037  0.70240  Biso   1.000  C 
  H53      1.0000 0.96280  0.96402  0.69821  Biso   1.000  H 
  H54      1.0000 0.90222  0.98936  0.69721  Biso   1.000  H 
  H55      1.0000 0.93412  0.88365  0.71987  Biso   1.000  H 
  H56      1.0000 0.90706  0.90531  0.66158  Biso   1.000  H 
  C28      1.0000 0.85596  0.89522  0.72150  Biso   1.000  C 
  H57      1.0000 0.56495  0.07740  0.88911  Biso   1.000  H 
  C29      1.0000 0.61459  0.04494  0.94047  Biso   1.000  C 
  H58      1.0000 0.62777  0.07932  0.86730  Biso   1.000  H 
  H59      1.0000 0.85203  0.89799  0.76311  Biso   1.000  H 
  C30      1.0000 0.84381  0.84218  0.70672  Biso   1.000  C 
  H60      1.0000 0.82680  0.91854  0.70461  Biso   1.000  H 
  H61      1.0000 0.87078  0.81613  0.72388  Biso   1.000  H 
  H62      1.0000 0.84320  0.83843  0.66552  Biso   1.000  H 
  H63      1.0000 0.80583  0.83315  0.72184  Biso   1.000  H 
  H64      1.0000 0.58039  0.03553  0.96226  Biso   1.000  H 
  H65      1.0000 0.63490  0.07845  0.95922  Biso   1.000  H 
  H66      1.0000 0.64026  0.01390  0.94266  Biso   1.000  H 
  B129     1.0000 0.13260  0.00000  0.92810  Biso   1.000  B 
  B130     1.0000 0.11720  0.00000  0.88280  Biso   1.000  B 
  B131     1.0000 0.07190  0.00000  0.86740  Biso   1.000  B 
  B132     1.0000 0.15650  0.00000  0.84350  Biso   1.000  B 
  B133     1.0000 0.20580  0.00000  0.85530  Biso   1.000  B 
  B134     1.0000 0.14470  0.00000  0.79420  Biso   1.000  B 
  B135     1.0000 0.24200  0.00000  0.82050  Biso   1.000  B 
  B136     1.0000 0.21490  0.00000  0.88860  Biso   1.000  B 
  B137     1.0000 0.17950  0.00000  0.75800  Biso   1.000  B 
  O7       1.0000 0.09386  0.98743  0.78049  Biso   1.000  O 
  B138     1.0000 0.23070  0.00000  0.76930  Biso   1.000  B 
  B139     1.0000 0.26930  0.00000  0.73070  Biso   1.000  B 
  B140     1.0000 0.27510  0.00000  0.83050  Biso   1.000  B 
  B141     1.0000 0.32050  0.00000  0.74200  Biso   1.000  B 
  B142     1.0000 0.16950  0.00000  0.72490  Biso   1.000  B 
  B143     1.0000 0.25800  0.00000  0.67950  Biso   1.000  B 
  B144     1.0000 0.35530  0.00000  0.70580  Biso   1.000  B 
  B145     1.0000 0.33050  0.00000  0.77510  Biso   1.000  B 
  B146     1.0000 0.29420  0.00000  0.64470  Biso   1.000  B 
  B147     1.0000 0.22490  0.00000  0.66950  Biso   1.000  B 
  B148     1.0000 0.34350  0.00000  0.65650  Biso   1.000  B 
  B149     1.0000 0.38280  0.00000  0.61720  Biso   1.000  B 
  O8       1.0000 0.40854  0.00017  0.72126  Biso   1.000  O 
  B150     1.0000 0.28510  0.00000  0.61140  Biso   1.000  B 
  B151     1.0000 0.42810  0.00000  0.63260  Biso   1.000  B 
  B152     1.0000 0.36740  0.00000  0.57190  Biso   1.000  B 
  C31      1.0000 0.42195  0.02379  0.76642  Biso   1.000  C 
  C32      1.0000 0.06915  0.03247  0.76967  Biso   1.000  C 
  C33      1.0000 0.43309  0.98062  0.80242  Biso   1.000  C 
  H67      1.0000 0.39118  0.05030  0.78204  Biso   1.000  H 
  H68      1.0000 0.45785  0.04353  0.76073  Biso   1.000  H 
  H69      1.0000 0.42058  0.94658  0.78717  Biso   1.000  H 
  C34      1.0000 0.41083  0.99079  0.85683  Biso   1.000  C 
  H70      1.0000 0.47270  0.97514  0.80791  Biso   1.000  H 
  H71      1.0000 0.37657  0.01394  0.85356  Biso   1.000  H 
  H72      1.0000 0.43725  0.01204  0.87962  Biso   1.000  H 
  C35      1.0000 0.40234  0.94293  0.88844  Biso   1.000  C 
  C36      1.0000 0.07485  0.03926  0.71486  Biso   1.000  C 
  H73      1.0000 0.08236  0.06484  0.79223  Biso   1.000  H 
  H74      1.0000 0.02853  0.02660  0.77760  Biso   1.000  H 
  C37      1.0000 0.09335  0.08967  0.70242  Biso   1.000  C 
  H75      1.0000 0.03723  0.03602  0.69818  Biso   1.000  H 
  H76      1.0000 0.09781  0.01068  0.69719  Biso   1.000  H 
  H77      1.0000 0.06593  0.11638  0.71994  Biso   1.000  H 
  H78      1.0000 0.09294  0.09478  0.66160  Biso   1.000  H 
  C38      1.0000 0.14408  0.10479  0.72149  Biso   1.000  C 
  H79      1.0000 0.43505  0.92260  0.88911  Biso   1.000  H 
  C39      1.0000 0.38541  0.95506  0.94047  Biso   1.000  C 
  H80      1.0000 0.37223  0.92068  0.86729  Biso   1.000  H 
  H81      1.0000 0.14803  0.10201  0.76310  Biso   1.000  H 
  C40      1.0000 0.15628  0.15781  0.70670  Biso   1.000  C 
  H82      1.0000 0.17321  0.08144  0.70459  Biso   1.000  H 
  H83      1.0000 0.12946  0.18390  0.72406  Biso   1.000  H 
  H84      1.0000 0.15665  0.16160  0.66550  Biso   1.000  H 
  H85      1.0000 0.19437  0.16673  0.72159  Biso   1.000  H 
  H86      1.0000 0.41961  0.96449  0.96225  Biso   1.000  H 
  H87      1.0000 0.36511  0.92155  0.95922  Biso   1.000  H 
  H88      1.0000 0.35973  0.98609  0.94266  Biso   1.000  H 
  B153     1.0000 0.07190  0.13260  0.00000  Biso   1.000  B 
  B154     1.0000 0.11720  0.11720  0.00000  Biso   1.000  B 
  B155     1.0000 0.13260  0.07190  0.00000  Biso   1.000  B 
  B156     1.0000 0.15650  0.15650  0.00000  Biso   1.000  B 
  B157     1.0000 0.14470  0.20580  0.00000  Biso   1.000  B 
  B158     1.0000 0.20580  0.14470  0.00000  Biso   1.000  B 
  B159     1.0000 0.17950  0.24200  0.00000  Biso   1.000  B 
  B160     1.0000 0.11140  0.21490  0.00000  Biso   1.000  B 
  B161     1.0000 0.24200  0.17950  0.00000  Biso   1.000  B 
  O9       1.0000 0.22155  0.09300  0.00590  Biso   1.000  O 
  B162     1.0000 0.23070  0.23070  0.00000  Biso   1.000  B 
  B163     1.0000 0.26930  0.26930  0.00000  Biso   1.000  B 
  B164     1.0000 0.16950  0.27510  0.00000  Biso   1.000  B 
  B165     1.0000 0.25800  0.32050  0.00000  Biso   1.000  B 
  B166     1.0000 0.27510  0.16950  0.00000  Biso   1.000  B 
  B167     1.0000 0.32050  0.25800  0.00000  Biso   1.000  B 
  B168     1.0000 0.29420  0.35530  0.00000  Biso   1.000  B 
  B169     1.0000 0.22490  0.33050  0.00000  Biso   1.000  B 
  B170     1.0000 0.35530  0.29420  0.00000  Biso   1.000  B 
  B171     1.0000 0.33050  0.22490  0.00000  Biso   1.000  B 
  B172     1.0000 0.34350  0.34350  0.00000  Biso   1.000  B 
  B173     1.0000 0.38280  0.38280  0.00000  Biso   1.000  B 
  O10      1.0000 0.27985  0.40779  0.99976  Biso   1.000  O 
  B174     1.0000 0.38860  0.28510  0.00000  Biso   1.000  B 
  B175     1.0000 0.36740  0.42810  0.00000  Biso   1.000  B 
  B176     1.0000 0.42810  0.36740  0.00000  Biso   1.000  B 
  C41      1.0000 0.23095  0.41750  0.01758  Biso   1.000  C 
  C42      1.0000 0.22853  0.06787  0.95979  Biso   1.000  C 
  C43      1.0000 0.21995  0.40662  0.07427  Biso   1.000  C 
  H89      1.0000 0.20062  0.40251  0.99300  Biso   1.000  H 
  H90      1.0000 0.22723  0.45871  0.01429  Biso   1.000  H 
  H91      1.0000 0.25327  0.39231  0.09321  Biso   1.000  H 
  C44      1.0000 0.17363  0.37322  0.08198  Biso   1.000  C 
  H92      1.0000 0.21093  0.44353  0.09019  Biso   1.000  H 
  H93      1.0000 0.18228  0.33470  0.07099  Biso   1.000  H 
  H94      1.0000 0.14090  0.38741  0.06060  Biso   1.000  H 
  C45      1.0000 0.15884  0.37573  0.13614  Biso   1.000  C 
  C46      1.0000 0.27949  0.07695  0.93313  Biso   1.000  C 
  H95      1.0000 0.19527  0.07289  0.93535  Biso   1.000  H 
  H96      1.0000 0.22952  0.02787  0.97050  Biso   1.000  H 
  C47      1.0000 0.27241  0.10010  0.87973  Biso   1.000  C 
  H97      1.0000 0.29766  0.03990  0.92648  Biso   1.000  H 
  H98      1.0000 0.30582  0.09845  0.95541  Biso   1.000  H 
  H99      1.0000 0.23425  0.09172  0.86595  Biso   1.000  H 
  H100     1.0000 0.30007  0.08249  0.85385  Biso   1.000  H 
  C48      1.0000 0.27983  0.15723  0.87538  Biso   1.000  C 
  H101     1.0000 0.11972  0.36299  0.13606  Biso   1.000  H 
  C49      1.0000 0.18654  0.34094  0.17146  Biso   1.000  C 
  H102     1.0000 0.15987  0.41462  0.15111  Biso   1.000  H 
  H103     1.0000 0.25079  0.17607  0.89780  Biso   1.000  H 
  C50      1.0000 0.27860  0.17248  0.81852  Biso   1.000  C 
  H104     1.0000 0.31616  0.16790  0.88992  Biso   1.000  H 
  H105     1.0000 0.24246  0.16196  0.80057  Biso   1.000  H 
  H106     1.0000 0.30930  0.15172  0.80015  Biso   1.000  H 
  H107     1.0000 0.28549  0.21267  0.81230  Biso   1.000  H 
  H108     1.0000 0.16190  0.33420  0.20367  Biso   1.000  H 
  H109     1.0000 0.22175  0.35710  0.18462  Biso   1.000  H 
  H110     1.0000 0.19454  0.30445  0.15346  Biso   1.000  H 
  B177     1.0000 0.07190  0.86740  0.00000  Biso   1.000  B 
  B178     1.0000 0.11720  0.88280  0.00000  Biso   1.000  B 
  B179     1.0000 0.13260  0.92810  0.00000  Biso   1.000  B 
  B180     1.0000 0.15650  0.84350  0.00000  Biso   1.000  B 
  B181     1.0000 0.14470  0.79420  0.00000  Biso   1.000  B 
  B182     1.0000 0.20580  0.85530  0.00000  Biso   1.000  B 
  B183     1.0000 0.17950  0.75800  0.00000  Biso   1.000  B 
  B184     1.0000 0.11140  0.78510  0.00000  Biso   1.000  B 
  B185     1.0000 0.24200  0.82050  0.00000  Biso   1.000  B 
  O11      1.0000 0.22155  0.90700  0.99410  Biso   1.000  O 
  B186     1.0000 0.23070  0.76930  0.00000  Biso   1.000  B 
  B187     1.0000 0.26930  0.73070  0.00000  Biso   1.000  B 
  B188     1.0000 0.16950  0.72490  0.00000  Biso   1.000  B 
  B189     1.0000 0.25800  0.67950  0.00000  Biso   1.000  B 
  B190     1.0000 0.27510  0.83050  0.00000  Biso   1.000  B 
  B191     1.0000 0.32050  0.74200  0.00000  Biso   1.000  B 
  B192     1.0000 0.29420  0.64470  0.00000  Biso   1.000  B 
  B193     1.0000 0.22490  0.66950  0.00000  Biso   1.000  B 
  B194     1.0000 0.35530  0.70580  0.00000  Biso   1.000  B 
  B195     1.0000 0.33050  0.77510  0.00000  Biso   1.000  B 
  B196     1.0000 0.34350  0.65650  0.00000  Biso   1.000  B 
  B197     1.0000 0.38280  0.61720  0.00000  Biso   1.000  B 
  O12      1.0000 0.27985  0.59221  0.00024  Biso   1.000  O 
  B198     1.0000 0.38860  0.71490  0.00000  Biso   1.000  B 
  B199     1.0000 0.36740  0.57190  0.00000  Biso   1.000  B 
  B200     1.0000 0.42810  0.63260  0.00000  Biso   1.000  B 
  C51      1.0000 0.23095  0.58250  0.98242  Biso   1.000  C 
  C52      1.0000 0.22854  0.93213  0.04021  Biso   1.000  C 
  C53      1.0000 0.21995  0.59338  0.92573  Biso   1.000  C 
  H111     1.0000 0.20062  0.59749  0.00700  Biso   1.000  H 
  H112     1.0000 0.22723  0.54129  0.98571  Biso   1.000  H 
  H113     1.0000 0.25327  0.60769  0.90679  Biso   1.000  H 
  C54      1.0000 0.17363  0.62678  0.91802  Biso   1.000  C 
  H114     1.0000 0.21093  0.55647  0.90981  Biso   1.000  H 
  H115     1.0000 0.18228  0.66530  0.92901  Biso   1.000  H 
  H116     1.0000 0.14090  0.61259  0.93940  Biso   1.000  H 
  C55      1.0000 0.15884  0.62427  0.86386  Biso   1.000  C 
  C56      1.0000 0.27949  0.92306  0.06687  Biso   1.000  C 
  H117     1.0000 0.19527  0.92712  0.06465  Biso   1.000  H 
  H118     1.0000 0.22953  0.97213  0.02949  Biso   1.000  H 
  C57      1.0000 0.27241  0.89990  0.12027  Biso   1.000  C 
  H119     1.0000 0.29766  0.96010  0.07352  Biso   1.000  H 
  H120     1.0000 0.30582  0.90155  0.04459  Biso   1.000  H 
  H121     1.0000 0.23425  0.90828  0.13404  Biso   1.000  H 
  H122     1.0000 0.30006  0.91751  0.14615  Biso   1.000  H 
  C58      1.0000 0.27983  0.84277  0.12462  Biso   1.000  C 
  H123     1.0000 0.11972  0.63701  0.86394  Biso   1.000  H 
  C59      1.0000 0.18654  0.65906  0.82854  Biso   1.000  C 
  H124     1.0000 0.15987  0.58538  0.84889  Biso   1.000  H 
  H125     1.0000 0.25079  0.82393  0.10220  Biso   1.000  H 
  C60      1.0000 0.27860  0.82752  0.18148  Biso   1.000  C 
  H126     1.0000 0.31617  0.83211  0.11008  Biso   1.000  H 
  H127     1.0000 0.24246  0.83804  0.19943  Biso   1.000  H 
  H128     1.0000 0.30930  0.84828  0.19985  Biso   1.000  H 
  H129     1.0000 0.28550  0.78733  0.18771  Biso   1.000  H 
  H130     1.0000 0.16190  0.66580  0.79633  Biso   1.000  H 
  H131     1.0000 0.22175  0.64290  0.81538  Biso   1.000  H 
  H132     1.0000 0.19454  0.69555  0.84655  Biso   1.000  H 
  B201     1.0000 0.92810  0.86740  0.00000  Biso   1.000  B 
  B202     1.0000 0.88280  0.88280  0.00000  Biso   1.000  B 
  B203     1.0000 0.86740  0.92810  0.00000  Biso   1.000  B 
  B204     1.0000 0.84350  0.84350  0.00000  Biso   1.000  B 
  B205     1.0000 0.85530  0.79420  0.00000  Biso   1.000  B 
  B206     1.0000 0.79420  0.85530  0.00000  Biso   1.000  B 
  B207     1.0000 0.82050  0.75800  0.00000  Biso   1.000  B 
  B208     1.0000 0.88860  0.78510  0.00000  Biso   1.000  B 
  B209     1.0000 0.75800  0.82050  0.00000  Biso   1.000  B 
  O13      1.0000 0.77845  0.90700  0.00590  Biso   1.000  O 
  B210     1.0000 0.76930  0.76930  0.00000  Biso   1.000  B 
  B211     1.0000 0.73070  0.73070  0.00000  Biso   1.000  B 
  B212     1.0000 0.83050  0.72490  0.00000  Biso   1.000  B 
  B213     1.0000 0.74200  0.67950  0.00000  Biso   1.000  B 
  B214     1.0000 0.72490  0.83050  0.00000  Biso   1.000  B 
  B215     1.0000 0.67950  0.74200  0.00000  Biso   1.000  B 
  B216     1.0000 0.70580  0.64470  0.00000  Biso   1.000  B 
  B217     1.0000 0.77510  0.66950  0.00000  Biso   1.000  B 
  B218     1.0000 0.64470  0.70580  0.00000  Biso   1.000  B 
  B219     1.0000 0.66950  0.77510  0.00000  Biso   1.000  B 
  B220     1.0000 0.65650  0.65650  0.00000  Biso   1.000  B 
  B221     1.0000 0.61720  0.61720  0.00000  Biso   1.000  B 
  O14      1.0000 0.72015  0.59221  0.99976  Biso   1.000  O 
  B222     1.0000 0.61140  0.71490  0.00000  Biso   1.000  B 
  B223     1.0000 0.63260  0.57190  0.00000  Biso   1.000  B 
  B224     1.0000 0.57190  0.63260  0.00000  Biso   1.000  B 
  C61      1.0000 0.76905  0.58250  0.01758  Biso   1.000  C 
  C62      1.0000 0.77146  0.93213  0.95979  Biso   1.000  C 
  C63      1.0000 0.78005  0.59338  0.07427  Biso   1.000  C 
  H133     1.0000 0.79938  0.59749  0.99300  Biso   1.000  H 
  H134     1.0000 0.77277  0.54129  0.01429  Biso   1.000  H 
  H135     1.0000 0.74673  0.60769  0.09321  Biso   1.000  H 
  C64      1.0000 0.82637  0.62678  0.08198  Biso   1.000  C 
  H136     1.0000 0.78908  0.55647  0.09019  Biso   1.000  H 
  H137     1.0000 0.81772  0.66530  0.07099  Biso   1.000  H 
  H138     1.0000 0.85910  0.61259  0.06060  Biso   1.000  H 
  C65      1.0000 0.84116  0.62427  0.13614  Biso   1.000  C 
  C66      1.0000 0.72051  0.92306  0.93314  Biso   1.000  C 
  H139     1.0000 0.80473  0.92712  0.93535  Biso   1.000  H 
  H140     1.0000 0.77048  0.97213  0.97050  Biso   1.000  H 
  C67      1.0000 0.72759  0.89990  0.87973  Biso   1.000  C 
  H141     1.0000 0.70233  0.96010  0.92648  Biso   1.000  H 
  H142     1.0000 0.69419  0.90155  0.95541  Biso   1.000  H 
  H143     1.0000 0.76575  0.90828  0.86595  Biso   1.000  H 
  H144     1.0000 0.69994  0.91751  0.85385  Biso   1.000  H 
  C68      1.0000 0.72017  0.84277  0.87538  Biso   1.000  C 
  H145     1.0000 0.88028  0.63701  0.13606  Biso   1.000  H 
  C69      1.0000 0.81347  0.65906  0.17146  Biso   1.000  C 
  H146     1.0000 0.84012  0.58538  0.15111  Biso   1.000  H 
  H147     1.0000 0.74921  0.82393  0.89780  Biso   1.000  H 
  C70      1.0000 0.72139  0.82752  0.81852  Biso   1.000  C 
  H148     1.0000 0.68383  0.83211  0.88992  Biso   1.000  H 
  H149     1.0000 0.75754  0.83804  0.80057  Biso   1.000  H 
  H150     1.0000 0.69070  0.84828  0.80015  Biso   1.000  H 
  H151     1.0000 0.71450  0.78733  0.81230  Biso   1.000  H 
  H152     1.0000 0.83810  0.66580  0.20367  Biso   1.000  H 
  H153     1.0000 0.77825  0.64290  0.18462  Biso   1.000  H 
  H154     1.0000 0.80546  0.69555  0.15346  Biso   1.000  H 
  B225     1.0000 0.92810  0.13260  0.00000  Biso   1.000  B 
  B226     1.0000 0.88280  0.11720  0.00000  Biso   1.000  B 
  B227     1.0000 0.86740  0.07190  0.00000  Biso   1.000  B 
  B228     1.0000 0.84350  0.15650  0.00000  Biso   1.000  B 
  B229     1.0000 0.85530  0.20580  0.00000  Biso   1.000  B 
  B230     1.0000 0.79420  0.14470  0.00000  Biso   1.000  B 
  B231     1.0000 0.82050  0.24200  0.00000  Biso   1.000  B 
  B232     1.0000 0.88860  0.21490  0.00000  Biso   1.000  B 
  B233     1.0000 0.75800  0.17950  0.00000  Biso   1.000  B 
  O15      1.0000 0.77845  0.09300  0.99410  Biso   1.000  O 
  B234     1.0000 0.76930  0.23070  0.00000  Biso   1.000  B 
  B235     1.0000 0.73070  0.26930  0.00000  Biso   1.000  B 
  B236     1.0000 0.83050  0.27510  0.00000  Biso   1.000  B 
  B237     1.0000 0.74200  0.32050  0.00000  Biso   1.000  B 
  B238     1.0000 0.72490  0.16950  0.00000  Biso   1.000  B 
  B239     1.0000 0.67950  0.25800  0.00000  Biso   1.000  B 
  B240     1.0000 0.70580  0.35530  0.00000  Biso   1.000  B 
  B241     1.0000 0.77510  0.33050  0.00000  Biso   1.000  B 
  B242     1.0000 0.64470  0.29420  0.00000  Biso   1.000  B 
  B243     1.0000 0.66950  0.22490  0.00000  Biso   1.000  B 
  B244     1.0000 0.65650  0.34350  0.00000  Biso   1.000  B 
  B245     1.0000 0.61720  0.38280  0.00000  Biso   1.000  B 
  O16      1.0000 0.72015  0.40779  0.00024  Biso   1.000  O 
  B246     1.0000 0.61140  0.28510  0.00000  Biso   1.000  B 
  B247     1.0000 0.63260  0.42810  0.00000  Biso   1.000  B 
  B248     1.0000 0.57190  0.36740  0.00000  Biso   1.000  B 
  C71      1.0000 0.76905  0.41750  0.98242  Biso   1.000  C 
  C72      1.0000 0.77146  0.06787  0.04021  Biso   1.000  C 
  C73      1.0000 0.78005  0.40662  0.92573  Biso   1.000  C 
  H155     1.0000 0.79938  0.40251  0.00700  Biso   1.000  H 
  H156     1.0000 0.77277  0.45871  0.98571  Biso   1.000  H 
  H157     1.0000 0.74673  0.39231  0.90679  Biso   1.000  H 
  C74      1.0000 0.82637  0.37322  0.91802  Biso   1.000  C 
  H158     1.0000 0.78908  0.44353  0.90981  Biso   1.000  H 
  H159     1.0000 0.81772  0.33470  0.92901  Biso   1.000  H 
  H160     1.0000 0.85910  0.38741  0.93940  Biso   1.000  H 
  C75      1.0000 0.84116  0.37573  0.86386  Biso   1.000  C 
  C76      1.0000 0.72051  0.07695  0.06687  Biso   1.000  C 
  H161     1.0000 0.80473  0.07289  0.06465  Biso   1.000  H 
  H162     1.0000 0.77048  0.02787  0.02949  Biso   1.000  H 
  C77      1.0000 0.72759  0.10010  0.12027  Biso   1.000  C 
  H163     1.0000 0.70234  0.03990  0.07352  Biso   1.000  H 
  H164     1.0000 0.69419  0.09845  0.04459  Biso   1.000  H 
  H165     1.0000 0.76575  0.09172  0.13405  Biso   1.000  H 
  H166     1.0000 0.69993  0.08249  0.14615  Biso   1.000  H 
  C78      1.0000 0.72017  0.15723  0.12462  Biso   1.000  C 
  H167     1.0000 0.88028  0.36299  0.86394  Biso   1.000  H 
  C79      1.0000 0.81347  0.34094  0.82854  Biso   1.000  C 
  H168     1.0000 0.84012  0.41462  0.84889  Biso   1.000  H 
  H169     1.0000 0.74921  0.17607  0.10220  Biso   1.000  H 
  C80      1.0000 0.72140  0.17248  0.18148  Biso   1.000  C 
  H170     1.0000 0.68384  0.16790  0.11008  Biso   1.000  H 
  H171     1.0000 0.75754  0.16196  0.19943  Biso   1.000  H 
  H172     1.0000 0.69070  0.15172  0.19985  Biso   1.000  H 
  H173     1.0000 0.71451  0.21267  0.18771  Biso   1.000  H 
  H174     1.0000 0.83810  0.33420  0.79633  Biso   1.000  H 
  H175     1.0000 0.77825  0.35710  0.81538  Biso   1.000  H 
  H176     1.0000 0.80546  0.30445  0.84655  Biso   1.000  H 
  B249     1.0000 0.00000  0.07190  0.13260  Biso   1.000  B 
  B250     1.0000 0.00000  0.11720  0.11720  Biso   1.000  B 
  B251     1.0000 0.00000  0.13260  0.07190  Biso   1.000  B 
  B252     1.0000 0.00000  0.15650  0.15650  Biso   1.000  B 
  B253     1.0000 0.00000  0.14470  0.20580  Biso   1.000  B 
  B254     1.0000 0.00000  0.20580  0.14470  Biso   1.000  B 
  B255     1.0000 0.00000  0.17950  0.24200  Biso   1.000  B 
  B256     1.0000 0.00000  0.11140  0.21490  Biso   1.000  B 
  B257     1.0000 0.00000  0.24200  0.17950  Biso   1.000  B 
  O17      1.0000 0.00670  0.22075  0.09269  Biso   1.000  O 
  B258     1.0000 0.00000  0.23070  0.23070  Biso   1.000  B 
  B259     1.0000 0.00000  0.26930  0.26930  Biso   1.000  B 
  B260     1.0000 0.00000  0.16950  0.27510  Biso   1.000  B 
  B261     1.0000 0.00000  0.25800  0.32050  Biso   1.000  B 
  B262     1.0000 0.00000  0.27510  0.16950  Biso   1.000  B 
  B263     1.0000 0.00000  0.32050  0.25800  Biso   1.000  B 
  B264     1.0000 0.00000  0.29420  0.35530  Biso   1.000  B 
  B265     1.0000 0.00000  0.22490  0.33050  Biso   1.000  B 
  B266     1.0000 0.00000  0.35530  0.29420  Biso   1.000  B 
  B267     1.0000 0.00000  0.33050  0.22490  Biso   1.000  B 
  B268     1.0000 0.00000  0.34350  0.34350  Biso   1.000  B 
  B269     1.0000 0.00000  0.38280  0.38280  Biso   1.000  B 
  O18      1.0000 0.00588  0.27645  0.40868  Biso   1.000  O 
  B270     1.0000 0.00000  0.38860  0.28510  Biso   1.000  B 
  B271     1.0000 0.00000  0.36740  0.42810  Biso   1.000  B 
  B272     1.0000 0.00000  0.42810  0.36740  Biso   1.000  B 
  C81      1.0000 0.97229  0.23947  0.41986  Biso   1.000  C 
  C82      1.0000 0.96336  0.24263  0.07332  Biso   1.000  C 
  C83      1.0000 0.01068  0.19336  0.42992  Biso   1.000  C 
  H177     1.0000 0.94300  0.23340  0.39311  Biso   1.000  H 
  H178     1.0000 0.95249  0.24794  0.45468  Biso   1.000  H 
  H179     1.0000 0.04015  0.19412  0.40133  Biso   1.000  H 
  C84      1.0000 0.98872  0.14003  0.42940  Biso   1.000  C 
  H180     1.0000 0.02579  0.19611  0.46837  Biso   1.000  H 
  H181     1.0000 0.95005  0.13795  0.43823  Biso   1.000  H 
  H182     1.0000 0.00874  0.11809  0.45630  Biso   1.000  H 
  C85      1.0000 0.99310  0.11429  0.38071  Biso   1.000  C 
  C86      1.0000 0.97331  0.29797  0.07049  Biso   1.000  C 
  H183     1.0000 0.92924  0.23471  0.09567  Biso   1.000  H 
  H184     1.0000 0.95822  0.22794  0.03535  Biso   1.000  H 
  C87      1.0000 0.92756  0.32717  0.05164  Biso   1.000  C 
  H185     1.0000 0.00566  0.30221  0.04536  Biso   1.000  H 
  H186     1.0000 0.98350  0.31318  0.10686  Biso   1.000  H 
  H187     1.0000 0.89312  0.31196  0.06889  Biso   1.000  H 
  H188     1.0000 0.92549  0.32161  0.01076  Biso   1.000  H 
  C88      1.0000 0.92618  0.38341  0.06361  Biso   1.000  C 
  H189     1.0000 0.97609  0.13705  0.35161  Biso   1.000  H 
  C89      1.0000 0.04488  0.10644  0.36471  Biso   1.000  C 
  H190     1.0000 0.97689  0.07567  0.38263  Biso   1.000  H 
  H191     1.0000 0.89171  0.40037  0.04803  Biso   1.000  H 
  C90      1.0000 0.97045  0.40899  0.04350  Biso   1.000  C 
  H192     1.0000 0.92613  0.38888  0.10464  Biso   1.000  H 
  H193     1.0000 0.95892  0.42720  0.00862  Biso   1.000  H 
  H194     1.0000 0.00040  0.38164  0.03917  Biso   1.000  H 
  H195     1.0000 0.98500  0.43805  0.06862  Biso   1.000  H 
  H196     1.0000 0.05187  0.13536  0.33608  Biso   1.000  H 
  H197     1.0000 0.04929  0.06770  0.34747  Biso   1.000  H 
  H198     1.0000 0.06995  0.10840  0.39546  Biso   1.000  H 
  B273     1.0000 0.00000  0.07190  0.86740  Biso   1.000  B 
  B274     1.0000 0.00000  0.11720  0.88280  Biso   1.000  B 
  B275     1.0000 0.00000  0.13260  0.92810  Biso   1.000  B 
  B276     1.0000 0.00000  0.15650  0.84350  Biso   1.000  B 
  B277     1.0000 0.00000  0.14470  0.79420  Biso   1.000  B 
  B278     1.0000 0.00000  0.20580  0.85530  Biso   1.000  B 
  B279     1.0000 0.00000  0.17950  0.75800  Biso   1.000  B 
  B280     1.0000 0.00000  0.11140  0.78510  Biso   1.000  B 
  B281     1.0000 0.00000  0.24200  0.82050  Biso   1.000  B 
  O19      1.0000 0.99330  0.22075  0.90731  Biso   1.000  O 
  B282     1.0000 0.00000  0.23070  0.76930  Biso   1.000  B 
  B283     1.0000 0.00000  0.26930  0.73070  Biso   1.000  B 
  B284     1.0000 0.00000  0.16950  0.72490  Biso   1.000  B 
  B285     1.0000 0.00000  0.25800  0.67950  Biso   1.000  B 
  B286     1.0000 0.00000  0.27510  0.83050  Biso   1.000  B 
  B287     1.0000 0.00000  0.32050  0.74200  Biso   1.000  B 
  B288     1.0000 0.00000  0.29420  0.64470  Biso   1.000  B 
  B289     1.0000 0.00000  0.22490  0.66950  Biso   1.000  B 
  B290     1.0000 0.00000  0.35530  0.70580  Biso   1.000  B 
  B291     1.0000 0.00000  0.33050  0.77510  Biso   1.000  B 
  B292     1.0000 0.00000  0.34350  0.65650  Biso   1.000  B 
  B293     1.0000 0.00000  0.38280  0.61720  Biso   1.000  B 
  O20      1.0000 0.99412  0.27645  0.59132  Biso   1.000  O 
  B294     1.0000 0.00000  0.38860  0.71490  Biso   1.000  B 
  B295     1.0000 0.00000  0.36740  0.57190  Biso   1.000  B 
  B296     1.0000 0.00000  0.42810  0.63260  Biso   1.000  B 
  C91      1.0000 0.02771  0.23947  0.58014  Biso   1.000  C 
  C92      1.0000 0.03665  0.24263  0.92668  Biso   1.000  C 
  C93      1.0000 0.98931  0.19336  0.57008  Biso   1.000  C 
  H199     1.0000 0.05700  0.23340  0.60690  Biso   1.000  H 
  H200     1.0000 0.04752  0.24794  0.54532  Biso   1.000  H 
  H201     1.0000 0.95985  0.19412  0.59867  Biso   1.000  H 
  C94      1.0000 0.01128  0.14003  0.57060  Biso   1.000  C 
  H202     1.0000 0.97421  0.19611  0.53163  Biso   1.000  H 
  H203     1.0000 0.04995  0.13794  0.56177  Biso   1.000  H 
  H204     1.0000 0.99125  0.11809  0.54370  Biso   1.000  H 
  C95      1.0000 0.00689  0.11429  0.61929  Biso   1.000  C 
  C96      1.0000 0.02669  0.29797  0.92951  Biso   1.000  C 
  H205     1.0000 0.07076  0.23471  0.90434  Biso   1.000  H 
  H206     1.0000 0.04178  0.22794  0.96465  Biso   1.000  H 
  C97      1.0000 0.07244  0.32717  0.94836  Biso   1.000  C 
  H207     1.0000 0.99434  0.30221  0.95464  Biso   1.000  H 
  H208     1.0000 0.01650  0.31318  0.89314  Biso   1.000  H 
  H209     1.0000 0.10688  0.31196  0.93111  Biso   1.000  H 
  H210     1.0000 0.07451  0.32161  0.98924  Biso   1.000  H 
  C98      1.0000 0.07382  0.38341  0.93639  Biso   1.000  C 
  H211     1.0000 0.02390  0.13706  0.64839  Biso   1.000  H 
  C99      1.0000 0.95511  0.10643  0.63530  Biso   1.000  C 
  H212     1.0000 0.02311  0.07568  0.61737  Biso   1.000  H 
  H213     1.0000 0.10830  0.40037  0.95197  Biso   1.000  H 
  C100     1.0000 0.02955  0.40899  0.95650  Biso   1.000  C 
  H214     1.0000 0.07387  0.38888  0.89536  Biso   1.000  H 
  H215     1.0000 0.04108  0.42720  0.99138  Biso   1.000  H 
  H216     1.0000 0.99960  0.38164  0.96083  Biso   1.000  H 
  H217     1.0000 0.01500  0.43805  0.93138  Biso   1.000  H 
  H218     1.0000 0.94815  0.13528  0.66399  Biso   1.000  H 
  H219     1.0000 0.95069  0.06765  0.65242  Biso   1.000  H 
  H220     1.0000 0.93003  0.10850  0.60455  Biso   1.000  H 
  B297     1.0000 0.00000  0.92810  0.86740  Biso   1.000  B 
  B298     1.0000 0.00000  0.88280  0.88280  Biso   1.000  B 
  B299     1.0000 0.00000  0.86740  0.92810  Biso   1.000  B 
  B300     1.0000 0.00000  0.84350  0.84350  Biso   1.000  B 
  B301     1.0000 0.00000  0.85530  0.79420  Biso   1.000  B 
  B302     1.0000 0.00000  0.79420  0.85530  Biso   1.000  B 
  B303     1.0000 0.00000  0.82050  0.75800  Biso   1.000  B 
  B304     1.0000 0.00000  0.88860  0.78510  Biso   1.000  B 
  B305     1.0000 0.00000  0.75800  0.82050  Biso   1.000  B 
  O21      1.0000 0.00670  0.77925  0.90731  Biso   1.000  O 
  B306     1.0000 0.00000  0.76930  0.76930  Biso   1.000  B 
  B307     1.0000 0.00000  0.73070  0.73070  Biso   1.000  B 
  B308     1.0000 0.00000  0.83050  0.72490  Biso   1.000  B 
  B309     1.0000 0.00000  0.74200  0.67950  Biso   1.000  B 
  B310     1.0000 0.00000  0.72490  0.83050  Biso   1.000  B 
  B311     1.0000 0.00000  0.67950  0.74200  Biso   1.000  B 
  B312     1.0000 0.00000  0.70580  0.64470  Biso   1.000  B 
  B313     1.0000 0.00000  0.77510  0.66950  Biso   1.000  B 
  B314     1.0000 0.00000  0.64470  0.70580  Biso   1.000  B 
  B315     1.0000 0.00000  0.66950  0.77510  Biso   1.000  B 
  B316     1.0000 0.00000  0.65650  0.65650  Biso   1.000  B 
  B317     1.0000 0.00000  0.61720  0.61720  Biso   1.000  B 
  O22      1.0000 0.00590  0.72355  0.59132  Biso   1.000  O 
  B318     1.0000 0.00000  0.61140  0.71490  Biso   1.000  B 
  B319     1.0000 0.00000  0.63260  0.57190  Biso   1.000  B 
  B320     1.0000 0.00000  0.57190  0.63260  Biso   1.000  B 
  C101     1.0000 0.97230  0.76051  0.58012  Biso   1.000  C 
  C102     1.0000 0.96335  0.75737  0.92668  Biso   1.000  C 
  C103     1.0000 0.01068  0.80663  0.57009  Biso   1.000  C 
  H221     1.0000 0.94300  0.76658  0.60688  Biso   1.000  H 
  H222     1.0000 0.95250  0.75203  0.54530  Biso   1.000  H 
  H223     1.0000 0.04015  0.80588  0.59867  Biso   1.000  H 
  C104     1.0000 0.98869  0.85995  0.57057  Biso   1.000  C 
  H224     1.0000 0.02579  0.80387  0.53162  Biso   1.000  H 
  H225     1.0000 0.95001  0.86202  0.56176  Biso   1.000  H 
  H226     1.0000 0.00870  0.88189  0.54366  Biso   1.000  H 
  C105     1.0000 0.99307  0.88572  0.61925  Biso   1.000  C 
  C106     1.0000 0.97331  0.70203  0.92951  Biso   1.000  C 
  H227     1.0000 0.92924  0.76529  0.90433  Biso   1.000  H 
  H228     1.0000 0.95821  0.77206  0.96465  Biso   1.000  H 
  C107     1.0000 0.92756  0.67283  0.94836  Biso   1.000  C 
  H229     1.0000 0.00565  0.69779  0.95463  Biso   1.000  H 
  H230     1.0000 0.98349  0.68682  0.89313  Biso   1.000  H 
  H231     1.0000 0.89312  0.68804  0.93112  Biso   1.000  H 
  H232     1.0000 0.92549  0.67840  0.98924  Biso   1.000  H 
  C108     1.0000 0.92618  0.61659  0.93640  Biso   1.000  C 
  H233     1.0000 0.97602  0.86299  0.64835  Biso   1.000  H 
  C109     1.0000 0.04482  0.89347  0.63533  Biso   1.000  C 
  H234     1.0000 0.97695  0.92436  0.61729  Biso   1.000  H 
  H235     1.0000 0.89170  0.59963  0.95199  Biso   1.000  H 
  C110     1.0000 0.97044  0.59101  0.95650  Biso   1.000  C 
  H236     1.0000 0.92612  0.61112  0.89537  Biso   1.000  H 
  H237     1.0000 0.95892  0.57279  0.99138  Biso   1.000  H 
  H238     1.0000 0.00039  0.61836  0.96084  Biso   1.000  H 
  H239     1.0000 0.98500  0.56196  0.93137  Biso   1.000  H 
  H240     1.0000 0.05218  0.86367  0.66296  Biso   1.000  H 
  H241     1.0000 0.04893  0.93163  0.65387  Biso   1.000  H 
  H242     1.0000 0.06971  0.89281  0.60438  Biso   1.000  H 
  B321     1.0000 0.00000  0.92810  0.13260  Biso   1.000  B 
  B322     1.0000 0.00000  0.88280  0.11720  Biso   1.000  B 
  B323     1.0000 0.00000  0.86740  0.07190  Biso   1.000  B 
  B324     1.0000 0.00000  0.84350  0.15650  Biso   1.000  B 
  B325     1.0000 0.00000  0.85530  0.20580  Biso   1.000  B 
  B326     1.0000 0.00000  0.79420  0.14470  Biso   1.000  B 
  B327     1.0000 0.00000  0.82050  0.24200  Biso   1.000  B 
  B328     1.0000 0.00000  0.88860  0.21490  Biso   1.000  B 
  B329     1.0000 0.00000  0.75800  0.17950  Biso   1.000  B 
  O23      1.0000 0.99330  0.77925  0.09269  Biso   1.000  O 
  B330     1.0000 0.00000  0.76930  0.23070  Biso   1.000  B 
  B331     1.0000 0.00000  0.73070  0.26930  Biso   1.000  B 
  B332     1.0000 0.00000  0.83050  0.27510  Biso   1.000  B 
  B333     1.0000 0.00000  0.74200  0.32050  Biso   1.000  B 
  B334     1.0000 0.00000  0.72490  0.16950  Biso   1.000  B 
  B335     1.0000 0.00000  0.67950  0.25800  Biso   1.000  B 
  B336     1.0000 0.00000  0.70580  0.35530  Biso   1.000  B 
  B337     1.0000 0.00000  0.77510  0.33050  Biso   1.000  B 
  B338     1.0000 0.00000  0.64470  0.29420  Biso   1.000  B 
  B339     1.0000 0.00000  0.66950  0.22490  Biso   1.000  B 
  B340     1.0000 0.00000  0.65650  0.34350  Biso   1.000  B 
  B341     1.0000 0.00000  0.61720  0.38280  Biso   1.000  B 
  O24      1.0000 0.99410  0.72355  0.40868  Biso   1.000  O 
  B342     1.0000 0.00000  0.61140  0.28510  Biso   1.000  B 
  B343     1.0000 0.00000  0.63260  0.42810  Biso   1.000  B 
  B344     1.0000 0.00000  0.57190  0.36740  Biso   1.000  B 
  C111     1.0000 0.02771  0.76052  0.41988  Biso   1.000  C 
  C112     1.0000 0.03665  0.75737  0.07332  Biso   1.000  C 
  C113     1.0000 0.98932  0.80663  0.42991  Biso   1.000  C 
  H243     1.0000 0.05701  0.76658  0.39312  Biso   1.000  H 
  H244     1.0000 0.04750  0.75204  0.45469  Biso   1.000  H 
  H245     1.0000 0.95985  0.80588  0.40133  Biso   1.000  H 
  C114     1.0000 0.01130  0.85995  0.42943  Biso   1.000  C 
  H246     1.0000 0.97420  0.80387  0.46838  Biso   1.000  H 
  H247     1.0000 0.04998  0.86203  0.43824  Biso   1.000  H 
  H248     1.0000 0.99129  0.88189  0.45634  Biso   1.000  H 
  C115     1.0000 0.00692  0.88572  0.38075  Biso   1.000  C 
  C116     1.0000 0.02669  0.70203  0.07049  Biso   1.000  C 
  H249     1.0000 0.07076  0.76529  0.09567  Biso   1.000  H 
  H250     1.0000 0.04179  0.77206  0.03535  Biso   1.000  H 
  C117     1.0000 0.07244  0.67283  0.05164  Biso   1.000  C 
  H251     1.0000 0.99434  0.69779  0.04537  Biso   1.000  H 
  H252     1.0000 0.01651  0.68682  0.10687  Biso   1.000  H 
  H253     1.0000 0.10688  0.68804  0.06888  Biso   1.000  H 
  H254     1.0000 0.07451  0.67840  0.01076  Biso   1.000  H 
  C118     1.0000 0.07382  0.61659  0.06360  Biso   1.000  C 
  H255     1.0000 0.02397  0.86299  0.35165  Biso   1.000  H 
  C119     1.0000 0.95518  0.89347  0.36467  Biso   1.000  C 
  H256     1.0000 0.02305  0.92436  0.38271  Biso   1.000  H 
  H257     1.0000 0.10830  0.59963  0.04801  Biso   1.000  H 
  C120     1.0000 0.02956  0.59101  0.04350  Biso   1.000  C 
  H258     1.0000 0.07388  0.61112  0.10463  Biso   1.000  H 
  H259     1.0000 0.04108  0.57279  0.00862  Biso   1.000  H 
  H260     1.0000 0.99961  0.61836  0.03916  Biso   1.000  H 
  H261     1.0000 0.01500  0.56196  0.06863  Biso   1.000  H 
  H262     1.0000 0.94784  0.86374  0.33696  Biso   1.000  H 
  H263     1.0000 0.95104  0.93169  0.34622  Biso   1.000  H 
  H264     1.0000 0.93026  0.89272  0.39561  Biso   1.000  H 
  B345     1.0000 0.13260  0.50000  0.57190  Biso   1.000  B 
  B346     1.0000 0.11720  0.50000  0.61720  Biso   1.000  B 
  B347     1.0000 0.07190  0.50000  0.63260  Biso   1.000  B 
  B348     1.0000 0.15650  0.50000  0.65650  Biso   1.000  B 
  B349     1.0000 0.20580  0.50000  0.64470  Biso   1.000  B 
  B350     1.0000 0.14470  0.50000  0.70580  Biso   1.000  B 
  B351     1.0000 0.24200  0.50000  0.67950  Biso   1.000  B 
  B352     1.0000 0.21490  0.50000  0.61140  Biso   1.000  B 
  B353     1.0000 0.17950  0.50000  0.74200  Biso   1.000  B 
  O25      1.0000 0.09287  0.50059  0.72258  Biso   1.000  O 
  B354     1.0000 0.23070  0.50000  0.73070  Biso   1.000  B 
  B355     1.0000 0.26930  0.50000  0.76930  Biso   1.000  B 
  B356     1.0000 0.27510  0.50000  0.66950  Biso   1.000  B 
  B357     1.0000 0.32050  0.50000  0.75800  Biso   1.000  B 
  B358     1.0000 0.16950  0.50000  0.77510  Biso   1.000  B 
  B359     1.0000 0.25800  0.50000  0.82050  Biso   1.000  B 
  B360     1.0000 0.35530  0.50000  0.79420  Biso   1.000  B 
  B361     1.0000 0.33050  0.50000  0.72490  Biso   1.000  B 
  B362     1.0000 0.29420  0.50000  0.85530  Biso   1.000  B 
  B363     1.0000 0.22490  0.50000  0.83050  Biso   1.000  B 
  B364     1.0000 0.34350  0.50000  0.84350  Biso   1.000  B 
  B365     1.0000 0.38280  0.50000  0.88280  Biso   1.000  B 
  O26      1.0000 0.40272  0.52333  0.78163  Biso   1.000  O 
  B366     1.0000 0.28510  0.50000  0.88860  Biso   1.000  B 
  B367     1.0000 0.42810  0.50000  0.86740  Biso   1.000  B 
  B368     1.0000 0.36740  0.50000  0.92810  Biso   1.000  B 
  C121     1.0000 0.42854  0.50055  0.74319  Biso   1.000  C 
  C122     1.0000 0.07723  0.45061  0.72817  Biso   1.000  C 
  C123     1.0000 0.43734  0.54340  0.70653  Biso   1.000  C 
  H265     1.0000 0.40873  0.46835  0.72593  Biso   1.000  H 
  H266     1.0000 0.46294  0.48659  0.76104  Biso   1.000  H 
  H267     1.0000 0.41375  0.57545  0.71662  Biso   1.000  H 
  C124     1.0000 0.42669  0.53323  0.65013  Biso   1.000  C 
  H268     1.0000 0.47683  0.55538  0.71229  Biso   1.000  H 
  H269     1.0000 0.38582  0.53354  0.64207  Biso   1.000  H 
  H270     1.0000 0.44230  0.49481  0.64057  Biso   1.000  H 
  C125     1.0000 0.45648  0.56818  0.61795  Biso   1.000  C 
  C126     1.0000 0.09745  0.42261  0.77425  Biso   1.000  C 
  H271     1.0000 0.08377  0.42998  0.69290  Biso   1.000  H 
  H272     1.0000 0.03672  0.45284  0.73410  Biso   1.000  H 
  C127     1.0000 0.12888  0.37817  0.75733  Biso   1.000  C 
  H273     1.0000 0.06495  0.40589  0.79460  Biso   1.000  H 
  H274     1.0000 0.11675  0.44750  0.79994  Biso   1.000  H 
  H275     1.0000 0.15631  0.39053  0.72873  Biso   1.000  H 
  H276     1.0000 0.10351  0.35026  0.74055  Biso   1.000  H 
  C128     1.0000 0.15546  0.35339  0.80054  Biso   1.000  C 
  H277     1.0000 0.45529  0.55421  0.57958  Biso   1.000  H 
  C129     1.0000 0.44091  0.62078  0.62025  Biso   1.000  C 
  H278     1.0000 0.49547  0.56593  0.63095  Biso   1.000  H 
  H279     1.0000 0.18351  0.38074  0.81322  Biso   1.000  H 
  C130     1.0000 0.18248  0.30464  0.78746  Biso   1.000  C 
  H280     1.0000 0.12973  0.34448  0.83170  Biso   1.000  H 
  H281     1.0000 0.18285  0.29685  0.74692  Biso   1.000  H 
  H282     1.0000 0.16498  0.27290  0.80741  Biso   1.000  H 
  H283     1.0000 0.22153  0.30788  0.80049  Biso   1.000  H 
  H284     1.0000 0.46942  0.64296  0.59951  Biso   1.000  H 
  H285     1.0000 0.43672  0.63659  0.65843  Biso   1.000  H 
  H286     1.0000 0.40528  0.62304  0.60148  Biso   1.000  H 
  B369     1.0000 0.86740  0.50000  0.57190  Biso   1.000  B 
  B370     1.0000 0.88280  0.50000  0.61720  Biso   1.000  B 
  B371     1.0000 0.92810  0.50000  0.63260  Biso   1.000  B 
  B372     1.0000 0.84350  0.50000  0.65650  Biso   1.000  B 
  B373     1.0000 0.79420  0.50000  0.64470  Biso   1.000  B 
  B374     1.0000 0.85530  0.50000  0.70580  Biso   1.000  B 
  B375     1.0000 0.75800  0.50000  0.67950  Biso   1.000  B 
  B376     1.0000 0.78510  0.50000  0.61140  Biso   1.000  B 
  B377     1.0000 0.82050  0.50000  0.74200  Biso   1.000  B 
  O27      1.0000 0.90713  0.49941  0.72258  Biso   1.000  O 
  B378     1.0000 0.76930  0.50000  0.73070  Biso   1.000  B 
  B379     1.0000 0.73070  0.50000  0.76930  Biso   1.000  B 
  B380     1.0000 0.72490  0.50000  0.66950  Biso   1.000  B 
  B381     1.0000 0.67950  0.50000  0.75800  Biso   1.000  B 
  B382     1.0000 0.83050  0.50000  0.77510  Biso   1.000  B 
  B383     1.0000 0.74200  0.50000  0.82050  Biso   1.000  B 
  B384     1.0000 0.64470  0.50000  0.79420  Biso   1.000  B 
  B385     1.0000 0.66950  0.50000  0.72490  Biso   1.000  B 
  B386     1.0000 0.70580  0.50000  0.85530  Biso   1.000  B 
  B387     1.0000 0.77510  0.50000  0.83050  Biso   1.000  B 
  B388     1.0000 0.65650  0.50000  0.84350  Biso   1.000  B 
  B389     1.0000 0.61720  0.50000  0.88280  Biso   1.000  B 
  O28      1.0000 0.59728  0.47667  0.78163  Biso   1.000  O 
  B390     1.0000 0.71490  0.50000  0.88860  Biso   1.000  B 
  B391     1.0000 0.57190  0.50000  0.86740  Biso   1.000  B 
  B392     1.0000 0.63260  0.50000  0.92810  Biso   1.000  B 
  C131     1.0000 0.57146  0.49945  0.74319  Biso   1.000  C 
  C132     1.0000 0.92277  0.54939  0.72817  Biso   1.000  C 
  C133     1.0000 0.56266  0.45660  0.70653  Biso   1.000  C 
  H287     1.0000 0.59127  0.53165  0.72593  Biso   1.000  H 
  H288     1.0000 0.53706  0.51341  0.76104  Biso   1.000  H 
  H289     1.0000 0.58625  0.42455  0.71662  Biso   1.000  H 
  C134     1.0000 0.57331  0.46677  0.65013  Biso   1.000  C 
  H290     1.0000 0.52317  0.44462  0.71229  Biso   1.000  H 
  H291     1.0000 0.61418  0.46646  0.64207  Biso   1.000  H 
  H292     1.0000 0.55770  0.50519  0.64057  Biso   1.000  H 
  C135     1.0000 0.54352  0.43182  0.61795  Biso   1.000  C 
  C136     1.0000 0.90255  0.57739  0.77425  Biso   1.000  C 
  H293     1.0000 0.91623  0.57003  0.69290  Biso   1.000  H 
  H294     1.0000 0.96328  0.54716  0.73410  Biso   1.000  H 
  C137     1.0000 0.87111  0.62182  0.75732  Biso   1.000  C 
  H295     1.0000 0.93506  0.59412  0.79459  Biso   1.000  H 
  H296     1.0000 0.88326  0.55250  0.79995  Biso   1.000  H 
  H297     1.0000 0.84366  0.60945  0.72876  Biso   1.000  H 
  H298     1.0000 0.89648  0.64972  0.74051  Biso   1.000  H 
  C138     1.0000 0.84457  0.64663  0.80055  Biso   1.000  C 
  H299     1.0000 0.54471  0.44579  0.57958  Biso   1.000  H 
  C139     1.0000 0.55909  0.37922  0.62025  Biso   1.000  C 
  H300     1.0000 0.50453  0.43407  0.63095  Biso   1.000  H 
  H301     1.0000 0.81653  0.61928  0.81328  Biso   1.000  H 
  C140     1.0000 0.81752  0.69536  0.78744  Biso   1.000  C 
  H302     1.0000 0.87033  0.65557  0.83167  Biso   1.000  H 
  H303     1.0000 0.81715  0.70314  0.74691  Biso   1.000  H 
  H304     1.0000 0.83499  0.72712  0.80740  Biso   1.000  H 
  H305     1.0000 0.77847  0.69210  0.80048  Biso   1.000  H 
  H306     1.0000 0.53058  0.35704  0.59951  Biso   1.000  H 
  H307     1.0000 0.56328  0.36341  0.65843  Biso   1.000  H 
  H308     1.0000 0.59472  0.37696  0.60148  Biso   1.000  H 
  B393     1.0000 0.86740  0.50000  0.42810  Biso   1.000  B 
  B394     1.0000 0.88280  0.50000  0.38280  Biso   1.000  B 
  B395     1.0000 0.92810  0.50000  0.36740  Biso   1.000  B 
  B396     1.0000 0.84350  0.50000  0.34350  Biso   1.000  B 
  B397     1.0000 0.79420  0.50000  0.35530  Biso   1.000  B 
  B398     1.0000 0.85530  0.50000  0.29420  Biso   1.000  B 
  B399     1.0000 0.75800  0.50000  0.32050  Biso   1.000  B 
  B400     1.0000 0.78510  0.50000  0.38860  Biso   1.000  B 
  B401     1.0000 0.82050  0.50000  0.25800  Biso   1.000  B 
  O29      1.0000 0.90713  0.50059  0.27742  Biso   1.000  O 
  B402     1.0000 0.76930  0.50000  0.26930  Biso   1.000  B 
  B403     1.0000 0.73070  0.50000  0.23070  Biso   1.000  B 
  B404     1.0000 0.72490  0.50000  0.33050  Biso   1.000  B 
  B405     1.0000 0.67950  0.50000  0.24200  Biso   1.000  B 
  B406     1.0000 0.83050  0.50000  0.22490  Biso   1.000  B 
  B407     1.0000 0.74200  0.50000  0.17950  Biso   1.000  B 
  B408     1.0000 0.64470  0.50000  0.20580  Biso   1.000  B 
  B409     1.0000 0.66950  0.50000  0.27510  Biso   1.000  B 
  B410     1.0000 0.70580  0.50000  0.14470  Biso   1.000  B 
  B411     1.0000 0.77510  0.50000  0.16950  Biso   1.000  B 
  B412     1.0000 0.65650  0.50000  0.15650  Biso   1.000  B 
  B413     1.0000 0.61720  0.50000  0.11720  Biso   1.000  B 
  O30      1.0000 0.59728  0.52333  0.21837  Biso   1.000  O 
  B414     1.0000 0.71490  0.50000  0.11140  Biso   1.000  B 
  B415     1.0000 0.57190  0.50000  0.13260  Biso   1.000  B 
  B416     1.0000 0.63260  0.50000  0.07190  Biso   1.000  B 
  C141     1.0000 0.57146  0.50055  0.25681  Biso   1.000  C 
  C142     1.0000 0.92277  0.45061  0.27183  Biso   1.000  C 
  C143     1.0000 0.56266  0.54340  0.29347  Biso   1.000  C 
  H309     1.0000 0.59127  0.46835  0.27407  Biso   1.000  H 
  H310     1.0000 0.53706  0.48659  0.23896  Biso   1.000  H 
  H311     1.0000 0.58625  0.57545  0.28338  Biso   1.000  H 
  C144     1.0000 0.57331  0.53323  0.34987  Biso   1.000  C 
  H312     1.0000 0.52317  0.55538  0.28771  Biso   1.000  H 
  H313     1.0000 0.61418  0.53354  0.35793  Biso   1.000  H 
  H314     1.0000 0.55770  0.49481  0.35943  Biso   1.000  H 
  C145     1.0000 0.54352  0.56818  0.38205  Biso   1.000  C 
  C146     1.0000 0.90255  0.42261  0.22575  Biso   1.000  C 
  H315     1.0000 0.91623  0.42998  0.30710  Biso   1.000  H 
  H316     1.0000 0.96328  0.45284  0.26590  Biso   1.000  H 
  C147     1.0000 0.87112  0.37817  0.24267  Biso   1.000  C 
  H317     1.0000 0.93505  0.40589  0.20540  Biso   1.000  H 
  H318     1.0000 0.88325  0.44750  0.20006  Biso   1.000  H 
  H319     1.0000 0.84369  0.39053  0.27127  Biso   1.000  H 
  H320     1.0000 0.89649  0.35026  0.25945  Biso   1.000  H 
  C148     1.0000 0.84454  0.35339  0.19946  Biso   1.000  C 
  H321     1.0000 0.54471  0.55421  0.42042  Biso   1.000  H 
  C149     1.0000 0.55909  0.62078  0.37975  Biso   1.000  C 
  H322     1.0000 0.50453  0.56593  0.36905  Biso   1.000  H 
  H323     1.0000 0.81649  0.38074  0.18678  Biso   1.000  H 
  C150     1.0000 0.81752  0.30464  0.21254  Biso   1.000  C 
  H324     1.0000 0.87027  0.34449  0.16830  Biso   1.000  H 
  H325     1.0000 0.81715  0.29685  0.25308  Biso   1.000  H 
  H326     1.0000 0.83502  0.27290  0.19259  Biso   1.000  H 
  H327     1.0000 0.77847  0.30788  0.19950  Biso   1.000  H 
  H328     1.0000 0.53058  0.64296  0.40049  Biso   1.000  H 
  H329     1.0000 0.56328  0.63659  0.34157  Biso   1.000  H 
  H330     1.0000 0.59472  0.62304  0.39852  Biso   1.000  H 
  B417     1.0000 0.13260  0.50000  0.42810  Biso   1.000  B 
  B418     1.0000 0.11720  0.50000  0.38280  Biso   1.000  B 
  B419     1.0000 0.07190  0.50000  0.36740  Biso   1.000  B 
  B420     1.0000 0.15650  0.50000  0.34350  Biso   1.000  B 
  B421     1.0000 0.20580  0.50000  0.35530  Biso   1.000  B 
  B422     1.0000 0.14470  0.50000  0.29420  Biso   1.000  B 
  B423     1.0000 0.24200  0.50000  0.32050  Biso   1.000  B 
  B424     1.0000 0.21490  0.50000  0.38860  Biso   1.000  B 
  B425     1.0000 0.17950  0.50000  0.25800  Biso   1.000  B 
  O31      1.0000 0.09287  0.49941  0.27742  Biso   1.000  O 
  B426     1.0000 0.23070  0.50000  0.26930  Biso   1.000  B 
  B427     1.0000 0.26930  0.50000  0.23070  Biso   1.000  B 
  B428     1.0000 0.27510  0.50000  0.33050  Biso   1.000  B 
  B429     1.0000 0.32050  0.50000  0.24200  Biso   1.000  B 
  B430     1.0000 0.16950  0.50000  0.22490  Biso   1.000  B 
  B431     1.0000 0.25800  0.50000  0.17950  Biso   1.000  B 
  B432     1.0000 0.35530  0.50000  0.20580  Biso   1.000  B 
  B433     1.0000 0.33050  0.50000  0.27510  Biso   1.000  B 
  B434     1.0000 0.29420  0.50000  0.14470  Biso   1.000  B 
  B435     1.0000 0.22490  0.50000  0.16950  Biso   1.000  B 
  B436     1.0000 0.34350  0.50000  0.15650  Biso   1.000  B 
  B437     1.0000 0.38280  0.50000  0.11720  Biso   1.000  B 
  O32      1.0000 0.40272  0.47667  0.21837  Biso   1.000  O 
  B438     1.0000 0.28510  0.50000  0.11140  Biso   1.000  B 
  B439     1.0000 0.42810  0.50000  0.13260  Biso   1.000  B 
  B440     1.0000 0.36740  0.50000  0.07190  Biso   1.000  B 
  C151     1.0000 0.42854  0.49945  0.25681  Biso   1.000  C 
  C152     1.0000 0.07723  0.54939  0.27183  Biso   1.000  C 
  C153     1.0000 0.43734  0.45660  0.29347  Biso   1.000  C 
  H331     1.0000 0.40873  0.53165  0.27407  Biso   1.000  H 
  H332     1.0000 0.46294  0.51341  0.23896  Biso   1.000  H 
  H333     1.0000 0.41375  0.42455  0.28338  Biso   1.000  H 
  C154     1.0000 0.42669  0.46677  0.34987  Biso   1.000  C 
  H334     1.0000 0.47683  0.44462  0.28771  Biso   1.000  H 
  H335     1.0000 0.38582  0.46646  0.35793  Biso   1.000  H 
  H336     1.0000 0.44230  0.50519  0.35943  Biso   1.000  H 
  C155     1.0000 0.45648  0.43182  0.38205  Biso   1.000  C 
  C156     1.0000 0.09745  0.57739  0.22575  Biso   1.000  C 
  H337     1.0000 0.08377  0.57003  0.30710  Biso   1.000  H 
  H338     1.0000 0.03672  0.54716  0.26590  Biso   1.000  H 
  C157     1.0000 0.12889  0.62182  0.24268  Biso   1.000  C 
  H339     1.0000 0.06494  0.59412  0.20541  Biso   1.000  H 
  H340     1.0000 0.11674  0.55250  0.20005  Biso   1.000  H 
  H341     1.0000 0.15634  0.60944  0.27124  Biso   1.000  H 
  H342     1.0000 0.10353  0.64972  0.25949  Biso   1.000  H 
  C158     1.0000 0.15543  0.64663  0.19945  Biso   1.000  C 
  H343     1.0000 0.45529  0.44579  0.42042  Biso   1.000  H 
  C159     1.0000 0.44091  0.37922  0.37975  Biso   1.000  C 
  H344     1.0000 0.49547  0.43407  0.36905  Biso   1.000  H 
  H345     1.0000 0.18346  0.61928  0.18672  Biso   1.000  H 
  C160     1.0000 0.18248  0.69536  0.21256  Biso   1.000  C 
  H346     1.0000 0.12967  0.65557  0.16833  Biso   1.000  H 
  H347     1.0000 0.18285  0.70314  0.25310  Biso   1.000  H 
  H348     1.0000 0.16501  0.72712  0.19260  Biso   1.000  H 
  H349     1.0000 0.22154  0.69210  0.19952  Biso   1.000  H 
  H350     1.0000 0.46942  0.35704  0.40049  Biso   1.000  H 
  H351     1.0000 0.43672  0.36341  0.34157  Biso   1.000  H 
  H352     1.0000 0.40528  0.37696  0.39852  Biso   1.000  H 
  B441     1.0000 0.07190  0.63260  0.50000  Biso   1.000  B 
  B442     1.0000 0.11720  0.61720  0.50000  Biso   1.000  B 
  B443     1.0000 0.13260  0.57190  0.50000  Biso   1.000  B 
  B444     1.0000 0.15650  0.65650  0.50000  Biso   1.000  B 
  B445     1.0000 0.14470  0.70580  0.50000  Biso   1.000  B 
  B446     1.0000 0.20580  0.64470  0.50000  Biso   1.000  B 
  B447     1.0000 0.17950  0.74200  0.50000  Biso   1.000  B 
  B448     1.0000 0.11140  0.71490  0.50000  Biso   1.000  B 
  B449     1.0000 0.24200  0.67950  0.50000  Biso   1.000  B 
  O33      1.0000 0.21883  0.59364  0.51479  Biso   1.000  O 
  B450     1.0000 0.23070  0.73070  0.50000  Biso   1.000  B 
  B451     1.0000 0.26930  0.76930  0.50000  Biso   1.000  B 
  B452     1.0000 0.16950  0.77510  0.50000  Biso   1.000  B 
  B453     1.0000 0.25800  0.82050  0.50000  Biso   1.000  B 
  B454     1.0000 0.27510  0.66950  0.50000  Biso   1.000  B 
  B455     1.0000 0.32050  0.75800  0.50000  Biso   1.000  B 
  B456     1.0000 0.29420  0.85530  0.50000  Biso   1.000  B 
  B457     1.0000 0.22490  0.83050  0.50000  Biso   1.000  B 
  B458     1.0000 0.35530  0.79420  0.50000  Biso   1.000  B 
  B459     1.0000 0.33050  0.72490  0.50000  Biso   1.000  B 
  B460     1.0000 0.34350  0.84350  0.50000  Biso   1.000  B 
  B461     1.0000 0.38280  0.88280  0.50000  Biso   1.000  B 
  O34      1.0000 0.27672  0.90755  0.51238  Biso   1.000  O 
  B462     1.0000 0.38860  0.78510  0.50000  Biso   1.000  B 
  B463     1.0000 0.36740  0.92810  0.50000  Biso   1.000  B 
  B464     1.0000 0.42810  0.86740  0.50000  Biso   1.000  B 
  C161     1.0000 0.23006  0.90842  0.53892  Biso   1.000  C 
  C162     1.0000 0.26187  0.57563  0.49143  Biso   1.000  C 
  C163     1.0000 0.21279  0.95550  0.56279  Biso   1.000  C 
  H353     1.0000 0.22719  0.87791  0.56735  Biso   1.000  H 
  H354     1.0000 0.20181  0.90335  0.50987  Biso   1.000  H 
  H355     1.0000 0.22967  0.95373  0.59946  Biso   1.000  H 
  C164     1.0000 0.15516  0.96004  0.57323  Biso   1.000  C 
  H356     1.0000 0.22465  0.98681  0.54045  Biso   1.000  H 
  H357     1.0000 0.14429  0.94627  0.60982  Biso   1.000  H 
  H358     1.0000 0.13385  0.93718  0.54566  Biso   1.000  H 
  C165     1.0000 0.13714  0.01290  0.56433  Biso   1.000  C 
  C166     1.0000 0.30415  0.57955  0.53032  Biso   1.000  C 
  H359     1.0000 0.27135  0.59622  0.45676  Biso   1.000  H 
  H360     1.0000 0.25506  0.53654  0.48044  Biso   1.000  H 
  C167     1.0000 0.35444  0.56851  0.50775  Biso   1.000  C 
  H361     1.0000 0.29501  0.54982  0.55774  Biso   1.000  H 
  H362     1.0000 0.30548  0.61536  0.55110  Biso   1.000  H 
  H363     1.0000 0.34865  0.54800  0.47224  Biso   1.000  H 
  H364     1.0000 0.37528  0.54396  0.53306  Biso   1.000  H 
  C168     1.0000 0.38582  0.61503  0.49584  Biso   1.000  C 
  H365     1.0000 0.09620  0.01397  0.56805  Biso   1.000  H 
  C169     1.0000 0.15880  0.05241  0.59688  Biso   1.000  C 
  H366     1.0000 0.14747  0.02387  0.52739  Biso   1.000  H 
  H367     1.0000 0.36556  0.63477  0.46720  Biso   1.000  H 
  C170     1.0000 0.43566  0.60130  0.47291  Biso   1.000  C 
  H368     1.0000 0.39089  0.63972  0.52769  Biso   1.000  H 
  H369     1.0000 0.45218  0.63451  0.45586  Biso   1.000  H 
  H370     1.0000 0.43144  0.57253  0.44335  Biso   1.000  H 
  H371     1.0000 0.46031  0.58782  0.50231  Biso   1.000  H 
  H372     1.0000 0.19961  0.05531  0.59043  Biso   1.000  H 
  H373     1.0000 0.15141  0.04217  0.63600  Biso   1.000  H 
  H374     1.0000 0.14282  0.08885  0.58941  Biso   1.000  H 
  B465     1.0000 0.07190  0.36740  0.50000  Biso   1.000  B 
  B466     1.0000 0.11720  0.38280  0.50000  Biso   1.000  B 
  B467     1.0000 0.13260  0.42810  0.50000  Biso   1.000  B 
  B468     1.0000 0.15650  0.34350  0.50000  Biso   1.000  B 
  B469     1.0000 0.14470  0.29420  0.50000  Biso   1.000  B 
  B470     1.0000 0.20580  0.35530  0.50000  Biso   1.000  B 
  B471     1.0000 0.17950  0.25800  0.50000  Biso   1.000  B 
  B472     1.0000 0.11140  0.28510  0.50000  Biso   1.000  B 
  B473     1.0000 0.24200  0.32050  0.50000  Biso   1.000  B 
  O35      1.0000 0.21883  0.40636  0.48521  Biso   1.000  O 
  B474     1.0000 0.23070  0.26930  0.50000  Biso   1.000  B 
  B475     1.0000 0.26930  0.23070  0.50000  Biso   1.000  B 
  B476     1.0000 0.16950  0.22490  0.50000  Biso   1.000  B 
  B477     1.0000 0.25800  0.17950  0.50000  Biso   1.000  B 
  B478     1.0000 0.27510  0.33050  0.50000  Biso   1.000  B 
  B479     1.0000 0.32050  0.24200  0.50000  Biso   1.000  B 
  B480     1.0000 0.29420  0.14470  0.50000  Biso   1.000  B 
  B481     1.0000 0.22490  0.16950  0.50000  Biso   1.000  B 
  B482     1.0000 0.35530  0.20580  0.50000  Biso   1.000  B 
  B483     1.0000 0.33050  0.27510  0.50000  Biso   1.000  B 
  B484     1.0000 0.34350  0.15650  0.50000  Biso   1.000  B 
  B485     1.0000 0.38280  0.11720  0.50000  Biso   1.000  B 
  O36      1.0000 0.27672  0.09244  0.48761  Biso   1.000  O 
  B486     1.0000 0.38860  0.21490  0.50000  Biso   1.000  B 
  B487     1.0000 0.36740  0.07190  0.50000  Biso   1.000  B 
  B488     1.0000 0.42810  0.13260  0.50000  Biso   1.000  B 
  C171     1.0000 0.23006  0.09159  0.46107  Biso   1.000  C 
  C172     1.0000 0.26187  0.42437  0.50857  Biso   1.000  C 
  C173     1.0000 0.21275  0.04453  0.43722  Biso   1.000  C 
  H375     1.0000 0.22721  0.12209  0.43264  Biso   1.000  H 
  H376     1.0000 0.20182  0.09669  0.49011  Biso   1.000  H 
  H377     1.0000 0.22961  0.04622  0.40054  Biso   1.000  H 
  C174     1.0000 0.15512  0.03999  0.42679  Biso   1.000  C 
  H378     1.0000 0.22457  0.01322  0.45960  Biso   1.000  H 
  H379     1.0000 0.14421  0.05378  0.39023  Biso   1.000  H 
  H380     1.0000 0.13383  0.06282  0.45441  Biso   1.000  H 
  C175     1.0000 0.13715  0.98711  0.43567  Biso   1.000  C 
  C176     1.0000 0.30415  0.42045  0.46968  Biso   1.000  C 
  H381     1.0000 0.27135  0.40378  0.54324  Biso   1.000  H 
  H382     1.0000 0.25506  0.46346  0.51956  Biso   1.000  H 
  C177     1.0000 0.35444  0.43149  0.49225  Biso   1.000  C 
  H383     1.0000 0.29501  0.45018  0.44226  Biso   1.000  H 
  H384     1.0000 0.30548  0.38464  0.44890  Biso   1.000  H 
  H385     1.0000 0.34865  0.45200  0.52776  Biso   1.000  H 
  H386     1.0000 0.37528  0.45604  0.46694  Biso   1.000  H 
  C178     1.0000 0.38582  0.38497  0.50416  Biso   1.000  C 
  H387     1.0000 0.09621  0.98602  0.43196  Biso   1.000  H 
  C179     1.0000 0.15880  0.94760  0.40310  Biso   1.000  C 
  H388     1.0000 0.14750  0.97611  0.47260  Biso   1.000  H 
  H389     1.0000 0.36556  0.36523  0.53280  Biso   1.000  H 
  C180     1.0000 0.43566  0.39870  0.52709  Biso   1.000  C 
  H390     1.0000 0.39089  0.36028  0.47231  Biso   1.000  H 
  H391     1.0000 0.45218  0.36548  0.54414  Biso   1.000  H 
  H392     1.0000 0.43144  0.42747  0.55665  Biso   1.000  H 
  H393     1.0000 0.46031  0.41218  0.49769  Biso   1.000  H 
  H394     1.0000 0.19962  0.94472  0.40951  Biso   1.000  H 
  H395     1.0000 0.15138  0.95783  0.36398  Biso   1.000  H 
  H396     1.0000 0.14285  0.91115  0.41057  Biso   1.000  H 
  B489     1.0000 0.92810  0.36740  0.50000  Biso   1.000  B 
  B490     1.0000 0.88280  0.38280  0.50000  Biso   1.000  B 
  B491     1.0000 0.86740  0.42810  0.50000  Biso   1.000  B 
  B492     1.0000 0.84350  0.34350  0.50000  Biso   1.000  B 
  B493     1.0000 0.85530  0.29420  0.50000  Biso   1.000  B 
  B494     1.0000 0.79420  0.35530  0.50000  Biso   1.000  B 
  B495     1.0000 0.82050  0.25800  0.50000  Biso   1.000  B 
  B496     1.0000 0.88860  0.28510  0.50000  Biso   1.000  B 
  B497     1.0000 0.75800  0.32050  0.50000  Biso   1.000  B 
  O37      1.0000 0.78117  0.40636  0.51479  Biso   1.000  O 
  B498     1.0000 0.76930  0.26930  0.50000  Biso   1.000  B 
  B499     1.0000 0.73070  0.23070  0.50000  Biso   1.000  B 
  B500     1.0000 0.83050  0.22490  0.50000  Biso   1.000  B 
  B501     1.0000 0.74200  0.17950  0.50000  Biso   1.000  B 
  B502     1.0000 0.72490  0.33050  0.50000  Biso   1.000  B 
  B503     1.0000 0.67950  0.24200  0.50000  Biso   1.000  B 
  B504     1.0000 0.70580  0.14470  0.50000  Biso   1.000  B 
  B505     1.0000 0.77510  0.16950  0.50000  Biso   1.000  B 
  B506     1.0000 0.64470  0.20580  0.50000  Biso   1.000  B 
  B507     1.0000 0.66950  0.27510  0.50000  Biso   1.000  B 
  B508     1.0000 0.65650  0.15650  0.50000  Biso   1.000  B 
  B509     1.0000 0.61720  0.11720  0.50000  Biso   1.000  B 
  O38      1.0000 0.72328  0.09244  0.51239  Biso   1.000  O 
  B510     1.0000 0.61140  0.21490  0.50000  Biso   1.000  B 
  B511     1.0000 0.63260  0.07190  0.50000  Biso   1.000  B 
  B512     1.0000 0.57190  0.13260  0.50000  Biso   1.000  B 
  C181     1.0000 0.76994  0.09159  0.53893  Biso   1.000  C 
  C182     1.0000 0.73813  0.42437  0.49143  Biso   1.000  C 
  C183     1.0000 0.78725  0.04453  0.56278  Biso   1.000  C 
  H397     1.0000 0.77279  0.12209  0.56736  Biso   1.000  H 
  H398     1.0000 0.79818  0.09669  0.50989  Biso   1.000  H 
  H399     1.0000 0.77039  0.04622  0.59946  Biso   1.000  H 
  C184     1.0000 0.84488  0.03999  0.57321  Biso   1.000  C 
  H400     1.0000 0.77543  0.01323  0.54040  Biso   1.000  H 
  H401     1.0000 0.85579  0.05378  0.60977  Biso   1.000  H 
  H402     1.0000 0.86617  0.06282  0.54559  Biso   1.000  H 
  C185     1.0000 0.86285  0.98711  0.56433  Biso   1.000  C 
  C186     1.0000 0.69585  0.42045  0.53032  Biso   1.000  C 
  H403     1.0000 0.72865  0.40378  0.45676  Biso   1.000  H 
  H404     1.0000 0.74494  0.46346  0.48044  Biso   1.000  H 
  C187     1.0000 0.64556  0.43149  0.50775  Biso   1.000  C 
  H405     1.0000 0.70499  0.45018  0.55774  Biso   1.000  H 
  H406     1.0000 0.69452  0.38464  0.55110  Biso   1.000  H 
  H407     1.0000 0.65135  0.45200  0.47224  Biso   1.000  H 
  H408     1.0000 0.62472  0.45604  0.53306  Biso   1.000  H 
  C188     1.0000 0.61418  0.38497  0.49584  Biso   1.000  C 
  H409     1.0000 0.90379  0.98602  0.56804  Biso   1.000  H 
  C189     1.0000 0.84120  0.94760  0.59690  Biso   1.000  C 
  H410     1.0000 0.85250  0.97611  0.52740  Biso   1.000  H 
  H411     1.0000 0.63444  0.36523  0.46720  Biso   1.000  H 
  C190     1.0000 0.56434  0.39870  0.47291  Biso   1.000  C 
  H412     1.0000 0.60911  0.36028  0.52769  Biso   1.000  H 
  H413     1.0000 0.54782  0.36548  0.45586  Biso   1.000  H 
  H414     1.0000 0.56856  0.42747  0.44335  Biso   1.000  H 
  H415     1.0000 0.53969  0.41218  0.50231  Biso   1.000  H 
  H416     1.0000 0.80038  0.94472  0.59049  Biso   1.000  H 
  H417     1.0000 0.84862  0.95783  0.63602  Biso   1.000  H 
  H418     1.0000 0.85715  0.91115  0.58943  Biso   1.000  H 
  B513     1.0000 0.92810  0.63260  0.50000  Biso   1.000  B 
  B514     1.0000 0.88280  0.61720  0.50000  Biso   1.000  B 
  B515     1.0000 0.86740  0.57190  0.50000  Biso   1.000  B 
  B516     1.0000 0.84350  0.65650  0.50000  Biso   1.000  B 
  B517     1.0000 0.85530  0.70580  0.50000  Biso   1.000  B 
  B518     1.0000 0.79420  0.64470  0.50000  Biso   1.000  B 
  B519     1.0000 0.82050  0.74200  0.50000  Biso   1.000  B 
  B520     1.0000 0.88860  0.71490  0.50000  Biso   1.000  B 
  B521     1.0000 0.75800  0.67950  0.50000  Biso   1.000  B 
  O39      1.0000 0.78117  0.59364  0.48521  Biso   1.000  O 
  B522     1.0000 0.76930  0.73070  0.50000  Biso   1.000  B 
  B523     1.0000 0.73070  0.76930  0.50000  Biso   1.000  B 
  B524     1.0000 0.83050  0.77510  0.50000  Biso   1.000  B 
  B525     1.0000 0.74200  0.82050  0.50000  Biso   1.000  B 
  B526     1.0000 0.72490  0.66950  0.50000  Biso   1.000  B 
  B527     1.0000 0.67950  0.75800  0.50000  Biso   1.000  B 
  B528     1.0000 0.70580  0.85530  0.50000  Biso   1.000  B 
  B529     1.0000 0.77510  0.83050  0.50000  Biso   1.000  B 
  B530     1.0000 0.64470  0.79420  0.50000  Biso   1.000  B 
  B531     1.0000 0.66950  0.72490  0.50000  Biso   1.000  B 
  B532     1.0000 0.65650  0.84350  0.50000  Biso   1.000  B 
  B533     1.0000 0.61720  0.88280  0.50000  Biso   1.000  B 
  O40      1.0000 0.72328  0.90755  0.48762  Biso   1.000  O 
  B534     1.0000 0.61140  0.78510  0.50000  Biso   1.000  B 
  B535     1.0000 0.63260  0.92810  0.50000  Biso   1.000  B 
  B536     1.0000 0.57190  0.86740  0.50000  Biso   1.000  B 
  C191     1.0000 0.76994  0.90842  0.46108  Biso   1.000  C 
  C192     1.0000 0.73813  0.57563  0.50857  Biso   1.000  C 
  C193     1.0000 0.78721  0.95550  0.43721  Biso   1.000  C 
  H419     1.0000 0.77281  0.87791  0.43265  Biso   1.000  H 
  H420     1.0000 0.79819  0.90335  0.49013  Biso   1.000  H 
  H421     1.0000 0.77033  0.95373  0.40054  Biso   1.000  H 
  C194     1.0000 0.84484  0.96004  0.42677  Biso   1.000  C 
  H422     1.0000 0.77535  0.98681  0.45955  Biso   1.000  H 
  H423     1.0000 0.85571  0.94627  0.39018  Biso   1.000  H 
  H424     1.0000 0.86615  0.93718  0.45434  Biso   1.000  H 
  C195     1.0000 0.86286  0.01290  0.43567  Biso   1.000  C 
  C196     1.0000 0.69585  0.57955  0.46968  Biso   1.000  C 
  H425     1.0000 0.72865  0.59622  0.54324  Biso   1.000  H 
  H426     1.0000 0.74494  0.53654  0.51956  Biso   1.000  H 
  C197     1.0000 0.64556  0.56851  0.49225  Biso   1.000  C 
  H427     1.0000 0.70499  0.54982  0.44226  Biso   1.000  H 
  H428     1.0000 0.69452  0.61536  0.44890  Biso   1.000  H 
  H429     1.0000 0.65135  0.54800  0.52776  Biso   1.000  H 
  H430     1.0000 0.62472  0.54396  0.46694  Biso   1.000  H 
  C198     1.0000 0.61418  0.61503  0.50416  Biso   1.000  C 
  H431     1.0000 0.90380  0.01397  0.43195  Biso   1.000  H 
  C199     1.0000 0.84120  0.05241  0.40312  Biso   1.000  C 
  H432     1.0000 0.85253  0.02387  0.47261  Biso   1.000  H 
  H433     1.0000 0.63444  0.63477  0.53280  Biso   1.000  H 
  C200     1.0000 0.56434  0.60130  0.52709  Biso   1.000  C 
  H434     1.0000 0.60911  0.63972  0.47231  Biso   1.000  H 
  H435     1.0000 0.54782  0.63451  0.54414  Biso   1.000  H 
  H436     1.0000 0.56856  0.57253  0.55665  Biso   1.000  H 
  H437     1.0000 0.53969  0.58782  0.49769  Biso   1.000  H 
  H438     1.0000 0.80039  0.05531  0.40957  Biso   1.000  H 
  H439     1.0000 0.84859  0.04217  0.36400  Biso   1.000  H 
  H440     1.0000 0.85718  0.08885  0.41059  Biso   1.000  H 
  B537     1.0000 0.50000  0.07190  0.63260  Biso   1.000  B 
  B538     1.0000 0.50000  0.11720  0.61720  Biso   1.000  B 
  B539     1.0000 0.50000  0.13260  0.57190  Biso   1.000  B 
  B540     1.0000 0.50000  0.15650  0.65650  Biso   1.000  B 
  B541     1.0000 0.50000  0.14470  0.70580  Biso   1.000  B 
  B542     1.0000 0.50000  0.20580  0.64470  Biso   1.000  B 
  B543     1.0000 0.50000  0.17950  0.74200  Biso   1.000  B 
  B544     1.0000 0.50000  0.11140  0.71490  Biso   1.000  B 
  B545     1.0000 0.50000  0.24200  0.67950  Biso   1.000  B 
  O41      1.0000 0.49990  0.22490  0.59286  Biso   1.000  O 
  B546     1.0000 0.50000  0.23070  0.73070  Biso   1.000  B 
  B547     1.0000 0.50000  0.26930  0.76930  Biso   1.000  B 
  B548     1.0000 0.50000  0.16950  0.77510  Biso   1.000  B 
  B549     1.0000 0.50000  0.25800  0.82050  Biso   1.000  B 
  B550     1.0000 0.50000  0.27510  0.66950  Biso   1.000  B 
  B551     1.0000 0.50000  0.32050  0.75800  Biso   1.000  B 
  B552     1.0000 0.50000  0.29420  0.85530  Biso   1.000  B 
  B553     1.0000 0.50000  0.22490  0.83050  Biso   1.000  B 
  B554     1.0000 0.50000  0.35530  0.79420  Biso   1.000  B 
  B555     1.0000 0.50000  0.33050  0.72490  Biso   1.000  B 
  B556     1.0000 0.50000  0.34350  0.84350  Biso   1.000  B 
  B557     1.0000 0.50000  0.38280  0.88280  Biso   1.000  B 
  O42      1.0000 0.50984  0.27676  0.90853  Biso   1.000  O 
  B558     1.0000 0.50000  0.38860  0.78510  Biso   1.000  B 
  B559     1.0000 0.50000  0.36740  0.92810  Biso   1.000  B 
  B560     1.0000 0.50000  0.42810  0.86740  Biso   1.000  B 
  C201     1.0000 0.53419  0.22839  0.91214  Biso   1.000  C 
  C202     1.0000 0.45278  0.23333  0.57234  Biso   1.000  C 
  C203     1.0000 0.56475  0.21767  0.95929  Biso   1.000  C 
  H441     1.0000 0.56045  0.22198  0.88054  Biso   1.000  H 
  H442     1.0000 0.50526  0.20003  0.91090  Biso   1.000  H 
  H443     1.0000 0.60123  0.23019  0.94643  Biso   1.000  H 
  C204     1.0000 0.57366  0.16183  0.96775  Biso   1.000  C 
  H444     1.0000 0.55200  0.23961  0.99067  Biso   1.000  H 
  H445     1.0000 0.61037  0.15249  0.95104  Biso   1.000  H 
  H446     1.0000 0.54580  0.13840  0.94865  Biso   1.000  H 
  C205     1.0000 0.57127  0.14741  0.02317  Biso   1.000  C 
  C206     1.0000 0.42443  0.27941  0.58979  Biso   1.000  C 
  H447     1.0000 0.42940  0.19994  0.57825  Biso   1.000  H 
  H448     1.0000 0.45956  0.23759  0.53176  Biso   1.000  H 
  C207     1.0000 0.37769  0.26603  0.62264  Biso   1.000  C 
  H449     1.0000 0.40907  0.29505  0.55487  Biso   1.000  H 
  H450     1.0000 0.45128  0.30604  0.60637  Biso   1.000  H 
  H451     1.0000 0.38721  0.25206  0.66051  Biso   1.000  H 
  H452     1.0000 0.35471  0.23696  0.60384  Biso   1.000  H 
  C208     1.0000 0.34317  0.31177  0.62617  Biso   1.000  C 
  H453     1.0000 0.58979  0.10987  0.02634  Biso   1.000  H 
  C209     1.0000 0.59871  0.18047  0.06016  Biso   1.000  C 
  H454     1.0000 0.53452  0.14663  0.03812  Biso   1.000  H 
  H455     1.0000 0.33473  0.32612  0.58920  Biso   1.000  H 
  C210     1.0000 0.37069  0.34859  0.65906  Biso   1.000  C 
  H456     1.0000 0.30758  0.29977  0.64326  Biso   1.000  H 
  H457     1.0000 0.38242  0.32941  0.69404  Biso   1.000  H 
  H458     1.0000 0.34556  0.37958  0.66852  Biso   1.000  H 
  H459     1.0000 0.40357  0.36430  0.63954  Biso   1.000  H 
  H460     1.0000 0.58588  0.21961  0.06390  Biso   1.000  H 
  H461     1.0000 0.63704  0.18082  0.04886  Biso   1.000  H 
  H462     1.0000 0.59484  0.16185  0.09742  Biso   1.000  H 
  B561     1.0000 0.50000  0.07190  0.36740  Biso   1.000  B 
  B562     1.0000 0.50000  0.11720  0.38280  Biso   1.000  B 
  B563     1.0000 0.50000  0.13260  0.42810  Biso   1.000  B 
  B564     1.0000 0.50000  0.15650  0.34350  Biso   1.000  B 
  B565     1.0000 0.50000  0.14470  0.29420  Biso   1.000  B 
  B566     1.0000 0.50000  0.20580  0.35530  Biso   1.000  B 
  B567     1.0000 0.50000  0.17950  0.25800  Biso   1.000  B 
  B568     1.0000 0.50000  0.11140  0.28510  Biso   1.000  B 
  B569     1.0000 0.50000  0.24200  0.32050  Biso   1.000  B 
  O43      1.0000 0.50010  0.22490  0.40714  Biso   1.000  O 
  B570     1.0000 0.50000  0.23070  0.26930  Biso   1.000  B 
  B571     1.0000 0.50000  0.26930  0.23070  Biso   1.000  B 
  B572     1.0000 0.50000  0.16950  0.22490  Biso   1.000  B 
  B573     1.0000 0.50000  0.25800  0.17950  Biso   1.000  B 
  B574     1.0000 0.50000  0.27510  0.33050  Biso   1.000  B 
  B575     1.0000 0.50000  0.32050  0.24200  Biso   1.000  B 
  B576     1.0000 0.50000  0.29420  0.14470  Biso   1.000  B 
  B577     1.0000 0.50000  0.22490  0.16950  Biso   1.000  B 
  B578     1.0000 0.50000  0.35530  0.20580  Biso   1.000  B 
  B579     1.0000 0.50000  0.33050  0.27510  Biso   1.000  B 
  B580     1.0000 0.50000  0.34350  0.15650  Biso   1.000  B 
  B581     1.0000 0.50000  0.38280  0.11720  Biso   1.000  B 
  O44      1.0000 0.49016  0.27676  0.09147  Biso   1.000  O 
  B582     1.0000 0.50000  0.38860  0.21490  Biso   1.000  B 
  B583     1.0000 0.50000  0.36740  0.07190  Biso   1.000  B 
  B584     1.0000 0.50000  0.42810  0.13260  Biso   1.000  B 
  C211     1.0000 0.46581  0.22839  0.08787  Biso   1.000  C 
  C212     1.0000 0.54722  0.23333  0.42766  Biso   1.000  C 
  C213     1.0000 0.43525  0.21767  0.04071  Biso   1.000  C 
  H463     1.0000 0.43955  0.22198  0.11946  Biso   1.000  H 
  H464     1.0000 0.49474  0.20003  0.08910  Biso   1.000  H 
  H465     1.0000 0.39877  0.23019  0.05357  Biso   1.000  H 
  C214     1.0000 0.42634  0.16183  0.03225  Biso   1.000  C 
  H466     1.0000 0.44800  0.23961  0.00933  Biso   1.000  H 
  H467     1.0000 0.38963  0.15249  0.04896  Biso   1.000  H 
  H468     1.0000 0.45420  0.13840  0.05135  Biso   1.000  H 
  C215     1.0000 0.42873  0.14741  0.97683  Biso   1.000  C 
  C216     1.0000 0.57557  0.27941  0.41021  Biso   1.000  C 
  H469     1.0000 0.57060  0.19994  0.42175  Biso   1.000  H 
  H470     1.0000 0.54044  0.23759  0.46824  Biso   1.000  H 
  C217     1.0000 0.62231  0.26603  0.37736  Biso   1.000  C 
  H471     1.0000 0.59093  0.29505  0.44513  Biso   1.000  H 
  H472     1.0000 0.54872  0.30604  0.39363  Biso   1.000  H 
  H473     1.0000 0.61279  0.25206  0.33949  Biso   1.000  H 
  H474     1.0000 0.64529  0.23696  0.39616  Biso   1.000  H 
  C218     1.0000 0.65683  0.31177  0.37383  Biso   1.000  C 
  H475     1.0000 0.41021  0.10987  0.97366  Biso   1.000  H 
  C219     1.0000 0.40129  0.18047  0.93985  Biso   1.000  C 
  H476     1.0000 0.46548  0.14663  0.96188  Biso   1.000  H 
  H477     1.0000 0.66527  0.32612  0.41080  Biso   1.000  H 
  C220     1.0000 0.62931  0.34859  0.34094  Biso   1.000  C 
  H478     1.0000 0.69242  0.29977  0.35674  Biso   1.000  H 
  H479     1.0000 0.61758  0.32941  0.30596  Biso   1.000  H 
  H480     1.0000 0.65444  0.37958  0.33148  Biso   1.000  H 
  H481     1.0000 0.59643  0.36430  0.36046  Biso   1.000  H 
  H482     1.0000 0.41412  0.21961  0.93609  Biso   1.000  H 
  H483     1.0000 0.36296  0.18082  0.95115  Biso   1.000  H 
  H484     1.0000 0.40516  0.16185  0.90258  Biso   1.000  H 
  B585     1.0000 0.50000  0.92810  0.36740  Biso   1.000  B 
  B586     1.0000 0.50000  0.88280  0.38280  Biso   1.000  B 
  B587     1.0000 0.50000  0.86740  0.42810  Biso   1.000  B 
  B588     1.0000 0.50000  0.84350  0.34350  Biso   1.000  B 
  B589     1.0000 0.50000  0.85530  0.29420  Biso   1.000  B 
  B590     1.0000 0.50000  0.79420  0.35530  Biso   1.000  B 
  B591     1.0000 0.50000  0.82050  0.25800  Biso   1.000  B 
  B592     1.0000 0.50000  0.88860  0.28510  Biso   1.000  B 
  B593     1.0000 0.50000  0.75800  0.32050  Biso   1.000  B 
  O45      1.0000 0.49990  0.77510  0.40714  Biso   1.000  O 
  B594     1.0000 0.50000  0.76930  0.26930  Biso   1.000  B 
  B595     1.0000 0.50000  0.73070  0.23070  Biso   1.000  B 
  B596     1.0000 0.50000  0.83050  0.22490  Biso   1.000  B 
  B597     1.0000 0.50000  0.74200  0.17950  Biso   1.000  B 
  B598     1.0000 0.50000  0.72490  0.33050  Biso   1.000  B 
  B599     1.0000 0.50000  0.67950  0.24200  Biso   1.000  B 
  B600     1.0000 0.50000  0.70580  0.14470  Biso   1.000  B 
  B601     1.0000 0.50000  0.77510  0.16950  Biso   1.000  B 
  B602     1.0000 0.50000  0.64470  0.20580  Biso   1.000  B 
  B603     1.0000 0.50000  0.66950  0.27510  Biso   1.000  B 
  B604     1.0000 0.50000  0.65650  0.15650  Biso   1.000  B 
  B605     1.0000 0.50000  0.61720  0.11720  Biso   1.000  B 
  O46      1.0000 0.50984  0.72324  0.09147  Biso   1.000  O 
  B606     1.0000 0.50000  0.61140  0.21490  Biso   1.000  B 
  B607     1.0000 0.50000  0.63260  0.07190  Biso   1.000  B 
  B608     1.0000 0.50000  0.57190  0.13260  Biso   1.000  B 
  C221     1.0000 0.53419  0.77161  0.08787  Biso   1.000  C 
  C222     1.0000 0.45278  0.76667  0.42766  Biso   1.000  C 
  C223     1.0000 0.56475  0.78233  0.04071  Biso   1.000  C 
  H485     1.0000 0.56045  0.77802  0.11946  Biso   1.000  H 
  H486     1.0000 0.50526  0.79997  0.08910  Biso   1.000  H 
  H487     1.0000 0.60123  0.76981  0.05357  Biso   1.000  H 
  C224     1.0000 0.57366  0.83817  0.03225  Biso   1.000  C 
  H488     1.0000 0.55200  0.76039  0.00933  Biso   1.000  H 
  H489     1.0000 0.61037  0.84751  0.04897  Biso   1.000  H 
  H490     1.0000 0.54580  0.86160  0.05135  Biso   1.000  H 
  C225     1.0000 0.57127  0.85259  0.97683  Biso   1.000  C 
  C226     1.0000 0.42443  0.72059  0.41021  Biso   1.000  C 
  H491     1.0000 0.42940  0.80006  0.42175  Biso   1.000  H 
  H492     1.0000 0.45956  0.76241  0.46824  Biso   1.000  H 
  C227     1.0000 0.37769  0.73397  0.37736  Biso   1.000  C 
  H493     1.0000 0.40907  0.70495  0.44513  Biso   1.000  H 
  H494     1.0000 0.45128  0.69396  0.39363  Biso   1.000  H 
  H495     1.0000 0.38721  0.74794  0.33949  Biso   1.000  H 
  H496     1.0000 0.35471  0.76304  0.39616  Biso   1.000  H 
  C228     1.0000 0.34317  0.68823  0.37383  Biso   1.000  C 
  H497     1.0000 0.58979  0.89013  0.97366  Biso   1.000  H 
  C229     1.0000 0.59871  0.81953  0.93985  Biso   1.000  C 
  H498     1.0000 0.53452  0.85337  0.96188  Biso   1.000  H 
  H499     1.0000 0.33473  0.67388  0.41080  Biso   1.000  H 
  C230     1.0000 0.37069  0.65141  0.34094  Biso   1.000  C 
  H500     1.0000 0.30758  0.70023  0.35674  Biso   1.000  H 
  H501     1.0000 0.38242  0.67059  0.30596  Biso   1.000  H 
  H502     1.0000 0.34556  0.62042  0.33148  Biso   1.000  H 
  H503     1.0000 0.40357  0.63570  0.36046  Biso   1.000  H 
  H504     1.0000 0.58588  0.78039  0.93609  Biso   1.000  H 
  H505     1.0000 0.63704  0.81918  0.95115  Biso   1.000  H 
  H506     1.0000 0.59484  0.83815  0.90258  Biso   1.000  H 
  B609     1.0000 0.50000  0.92810  0.63260  Biso   1.000  B 
  B610     1.0000 0.50000  0.88280  0.61720  Biso   1.000  B 
  B611     1.0000 0.50000  0.86740  0.57190  Biso   1.000  B 
  B612     1.0000 0.50000  0.84350  0.65650  Biso   1.000  B 
  B613     1.0000 0.50000  0.85530  0.70580  Biso   1.000  B 
  B614     1.0000 0.50000  0.79420  0.64470  Biso   1.000  B 
  B615     1.0000 0.50000  0.82050  0.74200  Biso   1.000  B 
  B616     1.0000 0.50000  0.88860  0.71490  Biso   1.000  B 
  B617     1.0000 0.50000  0.75800  0.67950  Biso   1.000  B 
  O47      1.0000 0.50010  0.77510  0.59286  Biso   1.000  O 
  B618     1.0000 0.50000  0.76930  0.73070  Biso   1.000  B 
  B619     1.0000 0.50000  0.73070  0.76930  Biso   1.000  B 
  B620     1.0000 0.50000  0.83050  0.77510  Biso   1.000  B 
  B621     1.0000 0.50000  0.74200  0.82050  Biso   1.000  B 
  B622     1.0000 0.50000  0.72490  0.66950  Biso   1.000  B 
  B623     1.0000 0.50000  0.67950  0.75800  Biso   1.000  B 
  B624     1.0000 0.50000  0.70580  0.85530  Biso   1.000  B 
  B625     1.0000 0.50000  0.77510  0.83050  Biso   1.000  B 
  B626     1.0000 0.50000  0.64470  0.79420  Biso   1.000  B 
  B627     1.0000 0.50000  0.66950  0.72490  Biso   1.000  B 
  B628     1.0000 0.50000  0.65650  0.84350  Biso   1.000  B 
  B629     1.0000 0.50000  0.61720  0.88280  Biso   1.000  B 
  O48      1.0000 0.49016  0.72324  0.90853  Biso   1.000  O 
  B630     1.0000 0.50000  0.61140  0.78510  Biso   1.000  B 
  B631     1.0000 0.50000  0.63260  0.92810  Biso   1.000  B 
  B632     1.0000 0.50000  0.57190  0.86740  Biso   1.000  B 
  C231     1.0000 0.46581  0.77161  0.91214  Biso   1.000  C 
  C232     1.0000 0.54722  0.76667  0.57234  Biso   1.000  C 
  C233     1.0000 0.43525  0.78233  0.95929  Biso   1.000  C 
  H507     1.0000 0.43955  0.77802  0.88054  Biso   1.000  H 
  H508     1.0000 0.49474  0.79997  0.91090  Biso   1.000  H 
  H509     1.0000 0.39877  0.76981  0.94643  Biso   1.000  H 
  C234     1.0000 0.42634  0.83817  0.96775  Biso   1.000  C 
  H510     1.0000 0.44800  0.76039  0.99067  Biso   1.000  H 
  H511     1.0000 0.38963  0.84751  0.95103  Biso   1.000  H 
  H512     1.0000 0.45420  0.86160  0.94865  Biso   1.000  H 
  C235     1.0000 0.42873  0.85259  0.02317  Biso   1.000  C 
  C236     1.0000 0.57557  0.72059  0.58979  Biso   1.000  C 
  H513     1.0000 0.57060  0.80006  0.57825  Biso   1.000  H 
  H514     1.0000 0.54044  0.76241  0.53176  Biso   1.000  H 
  C237     1.0000 0.62231  0.73397  0.62264  Biso   1.000  C 
  H515     1.0000 0.59093  0.70495  0.55487  Biso   1.000  H 
  H516     1.0000 0.54872  0.69396  0.60637  Biso   1.000  H 
  H517     1.0000 0.61279  0.74794  0.66051  Biso   1.000  H 
  H518     1.0000 0.64529  0.76304  0.60384  Biso   1.000  H 
  C238     1.0000 0.65683  0.68823  0.62617  Biso   1.000  C 
  H519     1.0000 0.41021  0.89013  0.02634  Biso   1.000  H 
  C239     1.0000 0.40129  0.81953  0.06016  Biso   1.000  C 
  H520     1.0000 0.46548  0.85337  0.03812  Biso   1.000  H 
  H521     1.0000 0.66527  0.67388  0.58920  Biso   1.000  H 
  C240     1.0000 0.62931  0.65141  0.65906  Biso   1.000  C 
  H522     1.0000 0.69242  0.70023  0.64326  Biso   1.000  H 
  H523     1.0000 0.61758  0.67059  0.69404  Biso   1.000  H 
  H524     1.0000 0.65444  0.62042  0.66852  Biso   1.000  H 
  H525     1.0000 0.59643  0.63570  0.63954  Biso   1.000  H 
  H526     1.0000 0.41412  0.78039  0.06390  Biso   1.000  H 
  H527     1.0000 0.36296  0.81918  0.04886  Biso   1.000  H 
  H528     1.0000 0.40516  0.83815  0.09742  Biso   1.000  H 
