data_image0
_cell_length_a       26.896
_cell_length_b       26.896
_cell_length_c       26.896
_cell_angle_alpha    90
_cell_angle_beta     90
_cell_angle_gamma    90

_symmetry_space_group_name_H-M    "P 1"
_symmetry_int_tables_number       1

loop_
  _symmetry_equiv_pos_as_xyz
  'x, y, z'

loop_
  _atom_site_label
  _atom_site_occupancy
  _atom_site_fract_x
  _atom_site_fract_y
  _atom_site_fract_z
  _atom_site_thermal_displace_type
  _atom_site_B_iso_or_equiv
  _atom_site_type_symbol
  B1       1.0000 0.09204  0.00000  0.00000  Biso   1.000  B 
  B2       1.0000 0.90796  0.00000  0.00000  Biso   1.000  B 
  B3       1.0000 0.00000  0.09204  0.00000  Biso   1.000  B 
  B4       1.0000 0.00000  0.90796  0.00000  Biso   1.000  B 
  B5       1.0000 0.00000  0.00000  0.09204  Biso   1.000  B 
  B6       1.0000 0.00000  0.00000  0.90796  Biso   1.000  B 
  B7       1.0000 0.09204  0.50000  0.50000  Biso   1.000  B 
  B8       1.0000 0.90796  0.50000  0.50000  Biso   1.000  B 
  B9       1.0000 0.00000  0.59204  0.50000  Biso   1.000  B 
  B10      1.0000 0.00000  0.40796  0.50000  Biso   1.000  B 
  B11      1.0000 0.00000  0.50000  0.59204  Biso   1.000  B 
  B12      1.0000 0.00000  0.50000  0.40796  Biso   1.000  B 
  B13      1.0000 0.59204  0.00000  0.50000  Biso   1.000  B 
  B14      1.0000 0.40796  0.00000  0.50000  Biso   1.000  B 
  B15      1.0000 0.50000  0.09204  0.50000  Biso   1.000  B 
  B16      1.0000 0.50000  0.90796  0.50000  Biso   1.000  B 
  B17      1.0000 0.50000  0.00000  0.59204  Biso   1.000  B 
  B18      1.0000 0.50000  0.00000  0.40796  Biso   1.000  B 
  B19      1.0000 0.59204  0.50000  0.00000  Biso   1.000  B 
  B20      1.0000 0.40796  0.50000  0.00000  Biso   1.000  B 
  B21      1.0000 0.50000  0.59204  0.00000  Biso   1.000  B 
  B22      1.0000 0.50000  0.40796  0.00000  Biso   1.000  B 
  B23      1.0000 0.50000  0.50000  0.09204  Biso   1.000  B 
  B24      1.0000 0.50000  0.50000  0.90796  Biso   1.000  B 
  B25      1.0000 0.04540  0.04540  0.04540  Biso   1.000  B 
  B26      1.0000 0.95460  0.95460  0.04540  Biso   1.000  B 
  B27      1.0000 0.95460  0.04540  0.95460  Biso   1.000  B 
  B28      1.0000 0.04540  0.95460  0.95460  Biso   1.000  B 
  B29      1.0000 0.04540  0.04540  0.95460  Biso   1.000  B 
  B30      1.0000 0.95460  0.95460  0.95460  Biso   1.000  B 
  B31      1.0000 0.04540  0.95460  0.04540  Biso   1.000  B 
  B32      1.0000 0.95460  0.04540  0.04540  Biso   1.000  B 
  B33      1.0000 0.04540  0.54540  0.54540  Biso   1.000  B 
  B34      1.0000 0.95460  0.45460  0.54540  Biso   1.000  B 
  B35      1.0000 0.95460  0.54540  0.45460  Biso   1.000  B 
  B36      1.0000 0.04540  0.45460  0.45460  Biso   1.000  B 
  B37      1.0000 0.04540  0.54540  0.45460  Biso   1.000  B 
  B38      1.0000 0.95460  0.45460  0.45460  Biso   1.000  B 
  B39      1.0000 0.04540  0.45460  0.54540  Biso   1.000  B 
  B40      1.0000 0.95460  0.54540  0.54540  Biso   1.000  B 
  B41      1.0000 0.54540  0.04540  0.54540  Biso   1.000  B 
  B42      1.0000 0.45460  0.95460  0.54540  Biso   1.000  B 
  B43      1.0000 0.45460  0.04540  0.45460  Biso   1.000  B 
  B44      1.0000 0.54540  0.95460  0.45460  Biso   1.000  B 
  B45      1.0000 0.54540  0.04540  0.45460  Biso   1.000  B 
  B46      1.0000 0.45460  0.95460  0.45460  Biso   1.000  B 
  B47      1.0000 0.54540  0.95460  0.54540  Biso   1.000  B 
  B48      1.0000 0.45460  0.04540  0.54540  Biso   1.000  B 
  B49      1.0000 0.54540  0.54540  0.04540  Biso   1.000  B 
  B50      1.0000 0.45460  0.45460  0.04540  Biso   1.000  B 
  B51      1.0000 0.45460  0.54540  0.95460  Biso   1.000  B 
  B52      1.0000 0.54540  0.45460  0.95460  Biso   1.000  B 
  B53      1.0000 0.54540  0.54540  0.95460  Biso   1.000  B 
  B54      1.0000 0.45460  0.45460  0.95460  Biso   1.000  B 
  B55      1.0000 0.54540  0.45460  0.04540  Biso   1.000  B 
  B56      1.0000 0.45460  0.54540  0.04540  Biso   1.000  B 
  B57      1.0000 0.13260  0.00000  0.07190  Biso   1.000  B 
  B58      1.0000 0.11720  0.00000  0.11720  Biso   1.000  B 
  B59      1.0000 0.07190  0.00000  0.13260  Biso   1.000  B 
  B60      1.0000 0.15650  0.00000  0.15650  Biso   1.000  B 
  B61      1.0000 0.20580  0.00000  0.14470  Biso   1.000  B 
  B62      1.0000 0.14470  0.00000  0.20580  Biso   1.000  B 
  B63      1.0000 0.24200  0.00000  0.17950  Biso   1.000  B 
  B64      1.0000 0.21490  0.00000  0.11140  Biso   1.000  B 
  B65      1.0000 0.17950  0.00000  0.24200  Biso   1.000  B 
  B66      1.0000 0.11140  0.00000  0.21490  Biso   1.000  B 
  B67      1.0000 0.23070  0.00000  0.23070  Biso   1.000  B 
  B68      1.0000 0.26930  0.00000  0.26930  Biso   1.000  B 
  B69      1.0000 0.27510  0.00000  0.16950  Biso   1.000  B 
  B70      1.0000 0.32050  0.00000  0.25800  Biso   1.000  B 
  N1       1.0000 0.15937  0.01241  0.29352  Biso   1.000  N 
  B71      1.0000 0.25800  0.00000  0.32050  Biso   1.000  B 
  B72      1.0000 0.35530  0.00000  0.29420  Biso   1.000  B 
  N2       1.0000 0.34034  0.98973  0.20653  Biso   1.000  N 
  B73      1.0000 0.29420  0.00000  0.35530  Biso   1.000  B 
  B74      1.0000 0.22490  0.00000  0.33050  Biso   1.000  B 
  B75      1.0000 0.34350  0.00000  0.34350  Biso   1.000  B 
  B76      1.0000 0.38280  0.00000  0.38280  Biso   1.000  B 
  B77      1.0000 0.38860  0.00000  0.28510  Biso   1.000  B 
  B78      1.0000 0.28510  0.00000  0.38860  Biso   1.000  B 
  B79      1.0000 0.42810  0.00000  0.36740  Biso   1.000  B 
  B80      1.0000 0.36740  0.00000  0.42810  Biso   1.000  B 
  C1       1.0000 0.34609  0.93830  0.19188  Biso   1.000  C 
  C2       1.0000 0.13534  0.06149  0.29467  Biso   1.000  C 
  C3       1.0000 0.39112  0.93324  0.15578  Biso   1.000  C 
  C4       1.0000 0.17725  0.10000  0.28820  Biso   1.000  C 
  H1       1.0000 0.13170  0.98589  0.29978  Biso   1.000  H 
  H2       1.0000 0.37223  0.01139  0.20055  Biso   1.000  H 
  C5       1.0000 0.15712  0.14971  0.27204  Biso   1.000  C 
  H3       1.0000 0.10445  0.06354  0.26741  Biso   1.000  H 
  H4       1.0000 0.31216  0.92744  0.17130  Biso   1.000  H 
  H5       1.0000 0.18931  0.17226  0.25936  Biso   1.000  H 
  C6       1.0000 0.12981  0.17558  0.31461  Biso   1.000  C 
  H6       1.0000 0.12994  0.14605  0.24031  Biso   1.000  H 
  C7       1.0000 0.43882  0.93151  0.18768  Biso   1.000  C 
  H7       1.0000 0.43890  0.96299  0.21277  Biso   1.000  H 
  C8       1.0000 0.48424  0.93191  0.15362  Biso   1.000  C 
  H8       1.0000 0.43631  0.89735  0.20972  Biso   1.000  H 
  H9       1.0000 0.35054  0.91243  0.22300  Biso   1.000  H 
  H10      1.0000 0.11973  0.06912  0.33156  Biso   1.000  H 
  H11      1.0000 0.39066  0.96330  0.12617  Biso   1.000  H 
  H12      1.0000 0.38284  0.89802  0.13767  Biso   1.000  H 
  H13      1.0000 0.20301  0.09024  0.25761  Biso   1.000  H 
  H14      1.0000 0.20011  0.10272  0.32249  Biso   1.000  H 
  H15      1.0000 0.14919  0.17594  0.35133  Biso   1.000  H 
  H16      1.0000 0.09219  0.15876  0.31787  Biso   1.000  H 
  C9       1.0000 0.12444  0.22933  0.29841  Biso   1.000  C 
  H17      1.0000 0.47865  0.96109  0.12525  Biso   1.000  H 
  H18      1.0000 0.48756  0.89540  0.13467  Biso   1.000  H 
  C10      1.0000 0.53432  0.94157  0.17892  Biso   1.000  C 
  H19      1.0000 0.56386  0.95063  0.15207  Biso   1.000  H 
  H20      1.0000 0.54698  0.90580  0.19508  Biso   1.000  H 
  H21      1.0000 0.53142  0.96781  0.20908  Biso   1.000  H 
  H22      1.0000 0.09934  0.23202  0.26535  Biso   1.000  H 
  H23      1.0000 0.16142  0.24509  0.28779  Biso   1.000  H 
  H24      1.0000 0.10824  0.25087  0.33103  Biso   1.000  H 
  B81      1.0000 0.86740  0.00000  0.07190  Biso   1.000  B 
  B82      1.0000 0.88280  0.00000  0.11720  Biso   1.000  B 
  B83      1.0000 0.92810  0.00000  0.13260  Biso   1.000  B 
  B84      1.0000 0.84350  0.00000  0.15650  Biso   1.000  B 
  B85      1.0000 0.79420  0.00000  0.14470  Biso   1.000  B 
  B86      1.0000 0.85530  0.00000  0.20580  Biso   1.000  B 
  B87      1.0000 0.75800  0.00000  0.17950  Biso   1.000  B 
  B88      1.0000 0.78510  0.00000  0.11140  Biso   1.000  B 
  B89      1.0000 0.82050  0.00000  0.24200  Biso   1.000  B 
  B90      1.0000 0.88860  0.00000  0.21490  Biso   1.000  B 
  B91      1.0000 0.76930  0.00000  0.23070  Biso   1.000  B 
  B92      1.0000 0.73070  0.00000  0.26930  Biso   1.000  B 
  B93      1.0000 0.72490  0.00000  0.16950  Biso   1.000  B 
  B94      1.0000 0.67950  0.00000  0.25800  Biso   1.000  B 
  N3       1.0000 0.84061  0.98756  0.29352  Biso   1.000  N 
  B95      1.0000 0.74200  0.00000  0.32050  Biso   1.000  B 
  B96      1.0000 0.64470  0.00000  0.29420  Biso   1.000  B 
  N4       1.0000 0.65966  0.01027  0.20652  Biso   1.000  N 
  B97      1.0000 0.70580  0.00000  0.35530  Biso   1.000  B 
  B98      1.0000 0.77510  0.00000  0.33050  Biso   1.000  B 
  B99      1.0000 0.65650  0.00000  0.34350  Biso   1.000  B 
  B100     1.0000 0.61720  0.00000  0.38280  Biso   1.000  B 
  B101     1.0000 0.61140  0.00000  0.28510  Biso   1.000  B 
  B102     1.0000 0.71490  0.00000  0.38860  Biso   1.000  B 
  B103     1.0000 0.57190  0.00000  0.36740  Biso   1.000  B 
  B104     1.0000 0.63260  0.00000  0.42810  Biso   1.000  B 
  C11      1.0000 0.65389  0.06169  0.19187  Biso   1.000  C 
  C12      1.0000 0.86464  0.93848  0.29464  Biso   1.000  C 
  C13      1.0000 0.60885  0.06674  0.15578  Biso   1.000  C 
  C14      1.0000 0.82274  0.89995  0.28826  Biso   1.000  C 
  H25      1.0000 0.86829  0.01407  0.29979  Biso   1.000  H 
  H26      1.0000 0.62777  0.98860  0.20055  Biso   1.000  H 
  C15      1.0000 0.84292  0.85028  0.27197  Biso   1.000  C 
  H27      1.0000 0.89549  0.93643  0.26734  Biso   1.000  H 
  H28      1.0000 0.68781  0.07255  0.17127  Biso   1.000  H 
  H29      1.0000 0.81075  0.82765  0.25935  Biso   1.000  H 
  C16      1.0000 0.87043  0.82449  0.31449  Biso   1.000  C 
  H30      1.0000 0.87000  0.85400  0.24017  Biso   1.000  H 
  C17      1.0000 0.56116  0.06846  0.18771  Biso   1.000  C 
  H31      1.0000 0.56109  0.03697  0.21278  Biso   1.000  H 
  C18      1.0000 0.51574  0.06806  0.15366  Biso   1.000  C 
  H32      1.0000 0.56367  0.10262  0.20976  Biso   1.000  H 
  H33      1.0000 0.64946  0.08756  0.22299  Biso   1.000  H 
  H34      1.0000 0.88032  0.93087  0.33150  Biso   1.000  H 
  H35      1.0000 0.60931  0.03667  0.12619  Biso   1.000  H 
  H36      1.0000 0.61710  0.10195  0.13765  Biso   1.000  H 
  H37      1.0000 0.79685  0.90972  0.25777  Biso   1.000  H 
  H38      1.0000 0.80001  0.89716  0.32262  Biso   1.000  H 
  H39      1.0000 0.85126  0.82433  0.35131  Biso   1.000  H 
  H40      1.0000 0.90810  0.84122  0.31748  Biso   1.000  H 
  C19      1.0000 0.87558  0.77066  0.29855  Biso   1.000  C 
  H41      1.0000 0.52133  0.03889  0.12528  Biso   1.000  H 
  H42      1.0000 0.51241  0.10458  0.13471  Biso   1.000  H 
  C20      1.0000 0.46567  0.05840  0.17898  Biso   1.000  C 
  H43      1.0000 0.43612  0.04935  0.15213  Biso   1.000  H 
  H44      1.0000 0.45302  0.09416  0.19516  Biso   1.000  H 
  H45      1.0000 0.46859  0.03214  0.20912  Biso   1.000  H 
  H46      1.0000 0.90055  0.76777  0.26540  Biso   1.000  H 
  H47      1.0000 0.83851  0.75494  0.28817  Biso   1.000  H 
  H48      1.0000 0.89188  0.74924  0.33122  Biso   1.000  H 
  B105     1.0000 0.86740  0.00000  0.92810  Biso   1.000  B 
  B106     1.0000 0.88280  0.00000  0.88280  Biso   1.000  B 
  B107     1.0000 0.92810  0.00000  0.86740  Biso   1.000  B 
  B108     1.0000 0.84350  0.00000  0.84350  Biso   1.000  B 
  B109     1.0000 0.79420  0.00000  0.85530  Biso   1.000  B 
  B110     1.0000 0.85530  0.00000  0.79420  Biso   1.000  B 
  B111     1.0000 0.75800  0.00000  0.82050  Biso   1.000  B 
  B112     1.0000 0.78510  0.00000  0.88860  Biso   1.000  B 
  B113     1.0000 0.82050  0.00000  0.75800  Biso   1.000  B 
  B114     1.0000 0.88860  0.00000  0.78510  Biso   1.000  B 
  B115     1.0000 0.76930  0.00000  0.76930  Biso   1.000  B 
  B116     1.0000 0.73070  0.00000  0.73070  Biso   1.000  B 
  B117     1.0000 0.72490  0.00000  0.83050  Biso   1.000  B 
  B118     1.0000 0.67950  0.00000  0.74200  Biso   1.000  B 
  N5       1.0000 0.84059  0.01250  0.70649  Biso   1.000  N 
  B119     1.0000 0.74200  0.00000  0.67950  Biso   1.000  B 
  B120     1.0000 0.64470  0.00000  0.70580  Biso   1.000  B 
  N6       1.0000 0.65967  0.98973  0.79347  Biso   1.000  N 
  B121     1.0000 0.70580  0.00000  0.64470  Biso   1.000  B 
  B122     1.0000 0.77510  0.00000  0.66950  Biso   1.000  B 
  B123     1.0000 0.65650  0.00000  0.65650  Biso   1.000  B 
  B124     1.0000 0.61720  0.00000  0.61720  Biso   1.000  B 
  B125     1.0000 0.61140  0.00000  0.71490  Biso   1.000  B 
  B126     1.0000 0.71490  0.00000  0.61140  Biso   1.000  B 
  B127     1.0000 0.57190  0.00000  0.63260  Biso   1.000  B 
  B128     1.0000 0.63260  0.00000  0.57190  Biso   1.000  B 
  C21      1.0000 0.65390  0.93830  0.80810  Biso   1.000  C 
  C22      1.0000 0.86459  0.06158  0.70541  Biso   1.000  C 
  C23      1.0000 0.60886  0.93324  0.84420  Biso   1.000  C 
  C24      1.0000 0.82271  0.10013  0.71172  Biso   1.000  C 
  H49      1.0000 0.86828  0.98601  0.70019  Biso   1.000  H 
  H50      1.0000 0.62778  0.01140  0.79946  Biso   1.000  H 
  C25      1.0000 0.84295  0.14976  0.72816  Biso   1.000  C 
  H51      1.0000 0.89542  0.06362  0.73274  Biso   1.000  H 
  H52      1.0000 0.68783  0.92743  0.82869  Biso   1.000  H 
  H53      1.0000 0.81081  0.17248  0.74070  Biso   1.000  H 
  C26      1.0000 0.87072  0.17543  0.68570  Biso   1.000  C 
  H54      1.0000 0.86991  0.14594  0.76006  Biso   1.000  H 
  C27      1.0000 0.56117  0.93151  0.81228  Biso   1.000  C 
  H55      1.0000 0.56110  0.96299  0.78719  Biso   1.000  H 
  C28      1.0000 0.51576  0.93191  0.84634  Biso   1.000  C 
  H56      1.0000 0.56369  0.89734  0.79025  Biso   1.000  H 
  H57      1.0000 0.64946  0.91244  0.77698  Biso   1.000  H 
  H58      1.0000 0.88035  0.06919  0.66858  Biso   1.000  H 
  H59      1.0000 0.60932  0.96332  0.87378  Biso   1.000  H 
  H60      1.0000 0.61713  0.89804  0.86233  Biso   1.000  H 
  H61      1.0000 0.79668  0.09034  0.74208  Biso   1.000  H 
  H62      1.0000 0.80013  0.10300  0.67726  Biso   1.000  H 
  H63      1.0000 0.85180  0.17532  0.64876  Biso   1.000  H 
  H64      1.0000 0.90845  0.15880  0.68304  Biso   1.000  H 
  C29      1.0000 0.87559  0.22936  0.70128  Biso   1.000  C 
  H65      1.0000 0.52135  0.96109  0.87471  Biso   1.000  H 
  H66      1.0000 0.51246  0.89540  0.86530  Biso   1.000  H 
  C30      1.0000 0.46567  0.94155  0.82104  Biso   1.000  C 
  H67      1.0000 0.43613  0.95059  0.84790  Biso   1.000  H 
  H68      1.0000 0.45302  0.90577  0.80488  Biso   1.000  H 
  H69      1.0000 0.46856  0.96779  0.79089  Biso   1.000  H 
  H70      1.0000 0.90047  0.23250  0.73450  Biso   1.000  H 
  H71      1.0000 0.83844  0.24503  0.71144  Biso   1.000  H 
  H72      1.0000 0.89196  0.25061  0.66852  Biso   1.000  H 
  B129     1.0000 0.13260  0.00000  0.92810  Biso   1.000  B 
  B130     1.0000 0.11720  0.00000  0.88280  Biso   1.000  B 
  B131     1.0000 0.07190  0.00000  0.86740  Biso   1.000  B 
  B132     1.0000 0.15650  0.00000  0.84350  Biso   1.000  B 
  B133     1.0000 0.20580  0.00000  0.85530  Biso   1.000  B 
  B134     1.0000 0.14470  0.00000  0.79420  Biso   1.000  B 
  B135     1.0000 0.24200  0.00000  0.82050  Biso   1.000  B 
  B136     1.0000 0.21490  0.00000  0.88860  Biso   1.000  B 
  B137     1.0000 0.17950  0.00000  0.75800  Biso   1.000  B 
  B138     1.0000 0.11140  0.00000  0.78510  Biso   1.000  B 
  B139     1.0000 0.23070  0.00000  0.76930  Biso   1.000  B 
  B140     1.0000 0.26930  0.00000  0.73070  Biso   1.000  B 
  B141     1.0000 0.27510  0.00000  0.83050  Biso   1.000  B 
  B142     1.0000 0.32050  0.00000  0.74200  Biso   1.000  B 
  N7       1.0000 0.15942  0.98748  0.70650  Biso   1.000  N 
  B143     1.0000 0.25800  0.00000  0.67950  Biso   1.000  B 
  B144     1.0000 0.35530  0.00000  0.70580  Biso   1.000  B 
  N8       1.0000 0.34034  0.01027  0.79348  Biso   1.000  N 
  B145     1.0000 0.29420  0.00000  0.64470  Biso   1.000  B 
  B146     1.0000 0.22490  0.00000  0.66950  Biso   1.000  B 
  B147     1.0000 0.34350  0.00000  0.65650  Biso   1.000  B 
  B148     1.0000 0.38280  0.00000  0.61720  Biso   1.000  B 
  B149     1.0000 0.38860  0.00000  0.71490  Biso   1.000  B 
  B150     1.0000 0.28510  0.00000  0.61140  Biso   1.000  B 
  B151     1.0000 0.42810  0.00000  0.63260  Biso   1.000  B 
  B152     1.0000 0.36740  0.00000  0.57190  Biso   1.000  B 
  C31      1.0000 0.34612  0.06169  0.80811  Biso   1.000  C 
  C32      1.0000 0.13543  0.93839  0.70542  Biso   1.000  C 
  C33      1.0000 0.39118  0.06673  0.84419  Biso   1.000  C 
  C34      1.0000 0.17730  0.89983  0.71170  Biso   1.000  C 
  H73      1.0000 0.13172  0.01396  0.70018  Biso   1.000  H 
  H74      1.0000 0.37222  0.98859  0.79945  Biso   1.000  H 
  C35      1.0000 0.15703  0.85023  0.72821  Biso   1.000  C 
  H75      1.0000 0.10462  0.93635  0.73277  Biso   1.000  H 
  H76      1.0000 0.31221  0.07255  0.82872  Biso   1.000  H 
  H77      1.0000 0.18916  0.82746  0.74072  Biso   1.000  H 
  C36      1.0000 0.12917  0.82460  0.68578  Biso   1.000  C 
  H78      1.0000 0.13012  0.85408  0.76014  Biso   1.000  H 
  C37      1.0000 0.43885  0.06846  0.81224  Biso   1.000  C 
  H79      1.0000 0.43892  0.03697  0.78716  Biso   1.000  H 
  C38      1.0000 0.48427  0.06806  0.84629  Biso   1.000  C 
  H80      1.0000 0.43633  0.10263  0.79020  Biso   1.000  H 
  H81      1.0000 0.35056  0.08755  0.77699  Biso   1.000  H 
  H82      1.0000 0.11963  0.93079  0.66862  Biso   1.000  H 
  H83      1.0000 0.39073  0.03665  0.87377  Biso   1.000  H 
  H84      1.0000 0.38292  0.10192  0.86234  Biso   1.000  H 
  H85      1.0000 0.20340  0.90964  0.74200  Biso   1.000  H 
  H86      1.0000 0.19982  0.89693  0.67720  Biso   1.000  H 
  H87      1.0000 0.14799  0.82482  0.64878  Biso   1.000  H 
  H88      1.0000 0.09141  0.84119  0.68324  Biso   1.000  H 
  C39      1.0000 0.12439  0.77063  0.70120  Biso   1.000  C 
  H89      1.0000 0.47868  0.03889  0.87467  Biso   1.000  H 
  H90      1.0000 0.48760  0.10458  0.86523  Biso   1.000  H 
  C40      1.0000 0.53434  0.05840  0.82096  Biso   1.000  C 
  H91      1.0000 0.56389  0.04936  0.84780  Biso   1.000  H 
  H92      1.0000 0.54699  0.09417  0.80477  Biso   1.000  H 
  H93      1.0000 0.53140  0.03214  0.79082  Biso   1.000  H 
  H94      1.0000 0.09955  0.76739  0.73444  Biso   1.000  H 
  H95      1.0000 0.16157  0.75498  0.71127  Biso   1.000  H 
  H96      1.0000 0.10800  0.74945  0.66840  Biso   1.000  H 
  B153     1.0000 0.07190  0.13260  0.00000  Biso   1.000  B 
  B154     1.0000 0.11720  0.11720  0.00000  Biso   1.000  B 
  B155     1.0000 0.13260  0.07190  0.00000  Biso   1.000  B 
  B156     1.0000 0.15650  0.15650  0.00000  Biso   1.000  B 
  B157     1.0000 0.14470  0.20580  0.00000  Biso   1.000  B 
  B158     1.0000 0.20580  0.14470  0.00000  Biso   1.000  B 
  B159     1.0000 0.17950  0.24200  0.00000  Biso   1.000  B 
  B160     1.0000 0.11140  0.21490  0.00000  Biso   1.000  B 
  B161     1.0000 0.24200  0.17950  0.00000  Biso   1.000  B 
  B162     1.0000 0.21490  0.11140  0.00000  Biso   1.000  B 
  B163     1.0000 0.23070  0.23070  0.00000  Biso   1.000  B 
  B164     1.0000 0.26930  0.26930  0.00000  Biso   1.000  B 
  B165     1.0000 0.16950  0.27510  0.00000  Biso   1.000  B 
  B166     1.0000 0.25800  0.32050  0.00000  Biso   1.000  B 
  N9       1.0000 0.29243  0.16030  0.01610  Biso   1.000  N 
  B167     1.0000 0.32050  0.25800  0.00000  Biso   1.000  B 
  B168     1.0000 0.29420  0.35530  0.00000  Biso   1.000  B 
  N10      1.0000 0.20702  0.34048  0.98545  Biso   1.000  N 
  B169     1.0000 0.35530  0.29420  0.00000  Biso   1.000  B 
  B170     1.0000 0.33050  0.22490  0.00000  Biso   1.000  B 
  B171     1.0000 0.34350  0.34350  0.00000  Biso   1.000  B 
  B172     1.0000 0.38280  0.38280  0.00000  Biso   1.000  B 
  B173     1.0000 0.28510  0.38860  0.00000  Biso   1.000  B 
  B174     1.0000 0.38860  0.28510  0.00000  Biso   1.000  B 
  B175     1.0000 0.36740  0.42810  0.00000  Biso   1.000  B 
  B176     1.0000 0.42810  0.36740  0.00000  Biso   1.000  B 
  C41      1.0000 0.20686  0.37422  0.94222  Biso   1.000  C 
  C42      1.0000 0.28978  0.15805  0.07080  Biso   1.000  C 
  C43      1.0000 0.15604  0.37264  0.91934  Biso   1.000  C 
  C44      1.0000 0.34371  0.15589  0.09136  Biso   1.000  C 
  H97      1.0000 0.29686  0.12407  0.00284  Biso   1.000  H 
  H98      1.0000 0.19742  0.36118  0.01725  Biso   1.000  H 
  C45      1.0000 0.35287  0.17036  0.14667  Biso   1.000  C 
  H99      1.0000 0.27108  0.19007  0.08720  Biso   1.000  H 
  H100     1.0000 0.23396  0.36139  0.91459  Biso   1.000  H 
  H101     1.0000 0.39317  0.16907  0.15372  Biso   1.000  H 
  C46      1.0000 0.32403  0.13592  0.18210  Biso   1.000  C 
  H102     1.0000 0.33794  0.20938  0.15118  Biso   1.000  H 
  C47      1.0000 0.11738  0.39171  0.95704  Biso   1.000  C 
  H103     1.0000 0.12459  0.37752  0.99562  Biso   1.000  H 
  C48      1.0000 0.06418  0.37639  0.94221  Biso   1.000  C 
  H104     1.0000 0.11990  0.43205  0.95740  Biso   1.000  H 
  H105     1.0000 0.21559  0.41360  0.95210  Biso   1.000  H 
  H106     1.0000 0.27106  0.12253  0.08160  Biso   1.000  H 
  H107     1.0000 0.14653  0.33436  0.90346  Biso   1.000  H 
  H108     1.0000 0.15587  0.39973  0.88855  Biso   1.000  H 
  H109     1.0000 0.36589  0.18088  0.06887  Biso   1.000  H 
  H110     1.0000 0.35798  0.11775  0.08592  Biso   1.000  H 
  H111     1.0000 0.32673  0.09681  0.16832  Biso   1.000  H 
  H112     1.0000 0.28375  0.14682  0.18212  Biso   1.000  H 
  C49      1.0000 0.33804  0.13647  0.23741  Biso   1.000  C 
  H113     1.0000 0.06090  0.38330  0.90186  Biso   1.000  H 
  H114     1.0000 0.03664  0.39890  0.96214  Biso   1.000  H 
  C50      1.0000 0.05803  0.32099  0.95719  Biso   1.000  C 
  H115     1.0000 0.07493  0.29554  0.92900  Biso   1.000  H 
  H116     1.0000 0.01882  0.30951  0.96091  Biso   1.000  H 
  H117     1.0000 0.07588  0.31476  0.99332  Biso   1.000  H 
  H118     1.0000 0.33199  0.17501  0.25163  Biso   1.000  H 
  H119     1.0000 0.37722  0.12445  0.24437  Biso   1.000  H 
  H120     1.0000 0.31271  0.10955  0.25731  Biso   1.000  H 
  B177     1.0000 0.07190  0.86740  0.00000  Biso   1.000  B 
  B178     1.0000 0.11720  0.88280  0.00000  Biso   1.000  B 
  B179     1.0000 0.13260  0.92810  0.00000  Biso   1.000  B 
  B180     1.0000 0.15650  0.84350  0.00000  Biso   1.000  B 
  B181     1.0000 0.14470  0.79420  0.00000  Biso   1.000  B 
  B182     1.0000 0.20580  0.85530  0.00000  Biso   1.000  B 
  B183     1.0000 0.17950  0.75800  0.00000  Biso   1.000  B 
  B184     1.0000 0.11140  0.78510  0.00000  Biso   1.000  B 
  B185     1.0000 0.24200  0.82050  0.00000  Biso   1.000  B 
  B186     1.0000 0.21490  0.88860  0.00000  Biso   1.000  B 
  B187     1.0000 0.23070  0.76930  0.00000  Biso   1.000  B 
  B188     1.0000 0.26930  0.73070  0.00000  Biso   1.000  B 
  B189     1.0000 0.16950  0.72490  0.00000  Biso   1.000  B 
  B190     1.0000 0.25800  0.67950  0.00000  Biso   1.000  B 
  N11      1.0000 0.29242  0.83970  0.98386  Biso   1.000  N 
  B191     1.0000 0.32050  0.74200  0.00000  Biso   1.000  B 
  B192     1.0000 0.29420  0.64470  0.00000  Biso   1.000  B 
  N12      1.0000 0.20711  0.65963  0.01522  Biso   1.000  N 
  B193     1.0000 0.35530  0.70580  0.00000  Biso   1.000  B 
  B194     1.0000 0.33050  0.77510  0.00000  Biso   1.000  B 
  B195     1.0000 0.34350  0.65650  0.00000  Biso   1.000  B 
  B196     1.0000 0.38280  0.61720  0.00000  Biso   1.000  B 
  B197     1.0000 0.28510  0.61140  0.00000  Biso   1.000  B 
  B198     1.0000 0.38860  0.71490  0.00000  Biso   1.000  B 
  B199     1.0000 0.36740  0.57190  0.00000  Biso   1.000  B 
  B200     1.0000 0.42810  0.63260  0.00000  Biso   1.000  B 
  C51      1.0000 0.20730  0.62640  0.05883  Biso   1.000  C 
  C52      1.0000 0.28974  0.84207  0.92917  Biso   1.000  C 
  C53      1.0000 0.15663  0.62818  0.08223  Biso   1.000  C 
  C54      1.0000 0.34370  0.84419  0.90862  Biso   1.000  C 
  H121     1.0000 0.29687  0.87591  0.99717  Biso   1.000  H 
  H122     1.0000 0.19731  0.63846  0.98380  Biso   1.000  H 
  C55      1.0000 0.35289  0.82967  0.85333  Biso   1.000  C 
  H123     1.0000 0.27100  0.81010  0.91273  Biso   1.000  H 
  H124     1.0000 0.23487  0.63921  0.08600  Biso   1.000  H 
  H125     1.0000 0.39319  0.83099  0.84631  Biso   1.000  H 
  C56      1.0000 0.32408  0.86407  0.81788  Biso   1.000  C 
  H126     1.0000 0.33799  0.79064  0.84883  Biso   1.000  H 
  C57      1.0000 0.11816  0.60696  0.04555  Biso   1.000  C 
  H127     1.0000 0.12605  0.61909  0.00658  Biso   1.000  H 
  C58      1.0000 0.06467  0.62277  0.05894  Biso   1.000  C 
  H128     1.0000 0.12059  0.56654  0.04748  Biso   1.000  H 
  H129     1.0000 0.21571  0.58691  0.04907  Biso   1.000  H 
  H130     1.0000 0.27106  0.87762  0.91845  Biso   1.000  H 
  H131     1.0000 0.14665  0.66681  0.09688  Biso   1.000  H 
  H132     1.0000 0.15726  0.60219  0.11394  Biso   1.000  H 
  H133     1.0000 0.36585  0.81918  0.93113  Biso   1.000  H 
  H134     1.0000 0.35800  0.88231  0.91405  Biso   1.000  H 
  H135     1.0000 0.32682  0.90319  0.83162  Biso   1.000  H 
  H136     1.0000 0.28379  0.85320  0.81789  Biso   1.000  H 
  C59      1.0000 0.33802  0.86347  0.76256  Biso   1.000  C 
  H137     1.0000 0.06049  0.61708  0.09939  Biso   1.000  H 
  H138     1.0000 0.03740  0.59975  0.03915  Biso   1.000  H 
  C60      1.0000 0.05916  0.67767  0.04239  Biso   1.000  C 
  H139     1.0000 0.07513  0.70389  0.07038  Biso   1.000  H 
  H140     1.0000 0.02000  0.68881  0.03732  Biso   1.000  H 
  H141     1.0000 0.07800  0.68302  0.00660  Biso   1.000  H 
  H142     1.0000 0.33169  0.82497  0.74833  Biso   1.000  H 
  H143     1.0000 0.37729  0.87522  0.75561  Biso   1.000  H 
  H144     1.0000 0.31289  0.89059  0.74269  Biso   1.000  H 
  B201     1.0000 0.92810  0.86740  0.00000  Biso   1.000  B 
  B202     1.0000 0.88280  0.88280  0.00000  Biso   1.000  B 
  B203     1.0000 0.86740  0.92810  0.00000  Biso   1.000  B 
  B204     1.0000 0.84350  0.84350  0.00000  Biso   1.000  B 
  B205     1.0000 0.85530  0.79420  0.00000  Biso   1.000  B 
  B206     1.0000 0.79420  0.85530  0.00000  Biso   1.000  B 
  B207     1.0000 0.82050  0.75800  0.00000  Biso   1.000  B 
  B208     1.0000 0.88860  0.78510  0.00000  Biso   1.000  B 
  B209     1.0000 0.75800  0.82050  0.00000  Biso   1.000  B 
  B210     1.0000 0.78510  0.88860  0.00000  Biso   1.000  B 
  B211     1.0000 0.76930  0.76930  0.00000  Biso   1.000  B 
  B212     1.0000 0.73070  0.73070  0.00000  Biso   1.000  B 
  B213     1.0000 0.83050  0.72490  0.00000  Biso   1.000  B 
  B214     1.0000 0.74200  0.67950  0.00000  Biso   1.000  B 
  N13      1.0000 0.70757  0.83970  0.01610  Biso   1.000  N 
  B215     1.0000 0.67950  0.74200  0.00000  Biso   1.000  B 
  B216     1.0000 0.70580  0.64470  0.00000  Biso   1.000  B 
  N14      1.0000 0.79282  0.65967  0.98470  Biso   1.000  N 
  B217     1.0000 0.64470  0.70580  0.00000  Biso   1.000  B 
  B218     1.0000 0.66950  0.77510  0.00000  Biso   1.000  B 
  B219     1.0000 0.65650  0.65650  0.00000  Biso   1.000  B 
  B220     1.0000 0.61720  0.61720  0.00000  Biso   1.000  B 
  B221     1.0000 0.71490  0.61140  0.00000  Biso   1.000  B 
  B222     1.0000 0.61140  0.71490  0.00000  Biso   1.000  B 
  B223     1.0000 0.63260  0.57190  0.00000  Biso   1.000  B 
  B224     1.0000 0.57190  0.63260  0.00000  Biso   1.000  B 
  C61      1.0000 0.79249  0.62650  0.94100  Biso   1.000  C 
  C62      1.0000 0.71022  0.84202  0.07080  Biso   1.000  C 
  C63      1.0000 0.84305  0.62835  0.91750  Biso   1.000  C 
  C64      1.0000 0.65627  0.84415  0.09134  Biso   1.000  C 
  H145     1.0000 0.70314  0.87592  0.00280  Biso   1.000  H 
  H146     1.0000 0.80276  0.63842  0.01601  Biso   1.000  H 
  C65      1.0000 0.64710  0.82964  0.14664  Biso   1.000  C 
  H147     1.0000 0.72896  0.81005  0.08723  Biso   1.000  H 
  H148     1.0000 0.76501  0.63957  0.91387  Biso   1.000  H 
  H149     1.0000 0.60680  0.83094  0.15368  Biso   1.000  H 
  C66      1.0000 0.67593  0.86408  0.18207  Biso   1.000  C 
  H150     1.0000 0.66202  0.79062  0.15114  Biso   1.000  H 
  C67      1.0000 0.88179  0.60751  0.95419  Biso   1.000  C 
  H151     1.0000 0.87403  0.62035  0.99288  Biso   1.000  H 
  C68      1.0000 0.93512  0.62359  0.94061  Biso   1.000  C 
  H152     1.0000 0.87915  0.56719  0.95309  Biso   1.000  H 
  H153     1.0000 0.78392  0.58699  0.95055  Biso   1.000  H 
  H154     1.0000 0.72889  0.87758  0.08155  Biso   1.000  H 
  H155     1.0000 0.85281  0.66700  0.90276  Biso   1.000  H 
  H156     1.0000 0.84253  0.60231  0.88583  Biso   1.000  H 
  H157     1.0000 0.63412  0.81914  0.06885  Biso   1.000  H 
  H158     1.0000 0.64195  0.88228  0.08588  Biso   1.000  H 
  H159     1.0000 0.67320  0.90319  0.16829  Biso   1.000  H 
  H160     1.0000 0.71621  0.85320  0.18206  Biso   1.000  H 
  C69      1.0000 0.66197  0.86352  0.23738  Biso   1.000  C 
  H161     1.0000 0.93922  0.61781  0.90019  Biso   1.000  H 
  H162     1.0000 0.96261  0.60088  0.96042  Biso   1.000  H 
  C70      1.0000 0.94035  0.67873  0.95696  Biso   1.000  C 
  H163     1.0000 0.92331  0.70473  0.92935  Biso   1.000  H 
  H164     1.0000 0.97941  0.69053  0.96113  Biso   1.000  H 
  H165     1.0000 0.92227  0.68382  0.99322  Biso   1.000  H 
  H166     1.0000 0.66811  0.82499  0.25162  Biso   1.000  H 
  H167     1.0000 0.62276  0.87546  0.24436  Biso   1.000  H 
  H168     1.0000 0.68724  0.89051  0.25726  Biso   1.000  H 
  B225     1.0000 0.92810  0.13260  0.00000  Biso   1.000  B 
  B226     1.0000 0.88280  0.11720  0.00000  Biso   1.000  B 
  B227     1.0000 0.86740  0.07190  0.00000  Biso   1.000  B 
  B228     1.0000 0.84350  0.15650  0.00000  Biso   1.000  B 
  B229     1.0000 0.85530  0.20580  0.00000  Biso   1.000  B 
  B230     1.0000 0.79420  0.14470  0.00000  Biso   1.000  B 
  B231     1.0000 0.82050  0.24200  0.00000  Biso   1.000  B 
  B232     1.0000 0.88860  0.21490  0.00000  Biso   1.000  B 
  B233     1.0000 0.75800  0.17950  0.00000  Biso   1.000  B 
  B234     1.0000 0.78510  0.11140  0.00000  Biso   1.000  B 
  B235     1.0000 0.76930  0.23070  0.00000  Biso   1.000  B 
  B236     1.0000 0.73070  0.26930  0.00000  Biso   1.000  B 
  B237     1.0000 0.83050  0.27510  0.00000  Biso   1.000  B 
  B238     1.0000 0.74200  0.32050  0.00000  Biso   1.000  B 
  N15      1.0000 0.70758  0.16030  0.98387  Biso   1.000  N 
  B239     1.0000 0.67950  0.25800  0.00000  Biso   1.000  B 
  B240     1.0000 0.70580  0.35530  0.00000  Biso   1.000  B 
  N16      1.0000 0.79292  0.34044  0.01463  Biso   1.000  N 
  B241     1.0000 0.64470  0.29420  0.00000  Biso   1.000  B 
  B242     1.0000 0.66950  0.22490  0.00000  Biso   1.000  B 
  B243     1.0000 0.65650  0.34350  0.00000  Biso   1.000  B 
  B244     1.0000 0.61720  0.38280  0.00000  Biso   1.000  B 
  B245     1.0000 0.71490  0.38860  0.00000  Biso   1.000  B 
  B246     1.0000 0.61140  0.28510  0.00000  Biso   1.000  B 
  B247     1.0000 0.63260  0.42810  0.00000  Biso   1.000  B 
  B248     1.0000 0.57190  0.36740  0.00000  Biso   1.000  B 
  C71      1.0000 0.79297  0.37422  0.05790  Biso   1.000  C 
  C72      1.0000 0.71024  0.15797  0.92918  Biso   1.000  C 
  C73      1.0000 0.84366  0.37248  0.08096  Biso   1.000  C 
  C74      1.0000 0.65629  0.15581  0.90863  Biso   1.000  C 
  H169     1.0000 0.70313  0.12409  0.99717  Biso   1.000  H 
  H170     1.0000 0.80267  0.36115  0.98287  Biso   1.000  H 
  C75      1.0000 0.64710  0.17032  0.85334  Biso   1.000  C 
  H171     1.0000 0.72896  0.18995  0.91275  Biso   1.000  H 
  H172     1.0000 0.76583  0.36133  0.08545  Biso   1.000  H 
  H173     1.0000 0.60680  0.16900  0.84631  Biso   1.000  H 
  C76      1.0000 0.67594  0.13592  0.81788  Biso   1.000  C 
  H174     1.0000 0.66199  0.20936  0.84884  Biso   1.000  H 
  C77      1.0000 0.88255  0.39097  0.04315  Biso   1.000  C 
  H175     1.0000 0.87551  0.37597  0.00487  Biso   1.000  H 
  C78      1.0000 0.93558  0.37551  0.05821  Biso   1.000  C 
  H176     1.0000 0.87997  0.43117  0.04186  Biso   1.000  H 
  H177     1.0000 0.78422  0.41363  0.04809  Biso   1.000  H 
  H178     1.0000 0.72894  0.12242  0.91844  Biso   1.000  H 
  H179     1.0000 0.85284  0.33421  0.09704  Biso   1.000  H 
  H180     1.0000 0.84395  0.39973  0.11161  Biso   1.000  H 
  H181     1.0000 0.63413  0.18082  0.93111  Biso   1.000  H 
  H182     1.0000 0.64200  0.11767  0.91410  Biso   1.000  H 
  H183     1.0000 0.67322  0.09680  0.83162  Biso   1.000  H 
  H184     1.0000 0.71622  0.14681  0.81789  Biso   1.000  H 
  C79      1.0000 0.66198  0.13652  0.76256  Biso   1.000  C 
  H185     1.0000 0.93864  0.38239  0.09854  Biso   1.000  H 
  H186     1.0000 0.96337  0.39779  0.03840  Biso   1.000  H 
  C80      1.0000 0.94147  0.31996  0.04333  Biso   1.000  C 
  H187     1.0000 0.92333  0.29466  0.07093  Biso   1.000  H 
  H188     1.0000 0.98057  0.30784  0.04079  Biso   1.000  H 
  H189     1.0000 0.92469  0.31403  0.00659  Biso   1.000  H 
  H190     1.0000 0.66825  0.17503  0.74833  Biso   1.000  H 
  H191     1.0000 0.62274  0.12471  0.75560  Biso   1.000  H 
  H192     1.0000 0.68716  0.10945  0.74268  Biso   1.000  H 
  B249     1.0000 0.00000  0.07190  0.13260  Biso   1.000  B 
  B250     1.0000 0.00000  0.11720  0.11720  Biso   1.000  B 
  B251     1.0000 0.00000  0.13260  0.07190  Biso   1.000  B 
  B252     1.0000 0.00000  0.15650  0.15650  Biso   1.000  B 
  B253     1.0000 0.00000  0.14470  0.20580  Biso   1.000  B 
  B254     1.0000 0.00000  0.20580  0.14470  Biso   1.000  B 
  B255     1.0000 0.00000  0.17950  0.24200  Biso   1.000  B 
  B256     1.0000 0.00000  0.11140  0.21490  Biso   1.000  B 
  B257     1.0000 0.00000  0.24200  0.17950  Biso   1.000  B 
  B258     1.0000 0.00000  0.21490  0.11140  Biso   1.000  B 
  B259     1.0000 0.00000  0.23070  0.23070  Biso   1.000  B 
  B260     1.0000 0.00000  0.26930  0.26930  Biso   1.000  B 
  B261     1.0000 0.00000  0.16950  0.27510  Biso   1.000  B 
  B262     1.0000 0.00000  0.25800  0.32050  Biso   1.000  B 
  N17      1.0000 0.01309  0.29341  0.15992  Biso   1.000  N 
  B263     1.0000 0.00000  0.32050  0.25800  Biso   1.000  B 
  B264     1.0000 0.00000  0.29420  0.35530  Biso   1.000  B 
  N18      1.0000 0.99890  0.20601  0.34066  Biso   1.000  N 
  B265     1.0000 0.00000  0.35530  0.29420  Biso   1.000  B 
  B266     1.0000 0.00000  0.33050  0.22490  Biso   1.000  B 
  B267     1.0000 0.00000  0.34350  0.34350  Biso   1.000  B 
  B268     1.0000 0.00000  0.38280  0.38280  Biso   1.000  B 
  B269     1.0000 0.00000  0.28510  0.38860  Biso   1.000  B 
  B270     1.0000 0.00000  0.38860  0.28510  Biso   1.000  B 
  B271     1.0000 0.00000  0.36740  0.42810  Biso   1.000  B 
  B272     1.0000 0.00000  0.42810  0.36740  Biso   1.000  B 
  C81      1.0000 0.94759  0.19206  0.35367  Biso   1.000  C 
  C82      1.0000 0.06776  0.29968  0.15467  Biso   1.000  C 
  C83      1.0000 0.94563  0.15300  0.39645  Biso   1.000  C 
  C84      1.0000 0.08101  0.33108  0.10799  Biso   1.000  C 
  H193     1.0000 0.99391  0.30136  0.12694  Biso   1.000  H 
  H194     1.0000 0.02401  0.20441  0.37144  Biso   1.000  H 
  C85      1.0000 0.05604  0.38256  0.11390  Biso   1.000  C 
  H195     1.0000 0.08081  0.32135  0.18794  Biso   1.000  H 
  H196     1.0000 0.93007  0.17446  0.32021  Biso   1.000  H 
  H197     1.0000 0.01833  0.37797  0.10325  Biso   1.000  H 
  C86      1.0000 0.07935  0.42507  0.08272  Biso   1.000  C 
  H198     1.0000 0.05619  0.39459  0.15362  Biso   1.000  H 
  C87      1.0000 0.93176  0.17334  0.45045  Biso   1.000  C 
  H199     1.0000 0.96331  0.19755  0.46393  Biso   1.000  H 
  C88      1.0000 0.92143  0.13522  0.49148  Biso   1.000  C 
  H200     1.0000 0.89800  0.19653  0.44651  Biso   1.000  H 
  H201     1.0000 0.92553  0.22621  0.36245  Biso   1.000  H 
  H202     1.0000 0.08615  0.26274  0.15404  Biso   1.000  H 
  H203     1.0000 0.98221  0.13365  0.39844  Biso   1.000  H 
  H204     1.0000 0.91734  0.12527  0.38637  Biso   1.000  H 
  H205     1.0000 0.06705  0.31053  0.07435  Biso   1.000  H 
  H206     1.0000 0.12170  0.33345  0.10345  Biso   1.000  H 
  H207     1.0000 0.07049  0.42088  0.04276  Biso   1.000  H 
  H208     1.0000 0.12189  0.42172  0.08656  Biso   1.000  H 
  C89      1.0000 0.06382  0.47771  0.09893  Biso   1.000  C 
  H209     1.0000 0.95084  0.10609  0.49178  Biso   1.000  H 
  H210     1.0000 0.88403  0.11669  0.48560  Biso   1.000  H 
  C90      1.0000 0.92197  0.15966  0.54251  Biso   1.000  C 
  H211     1.0000 0.90473  0.13550  0.57236  Biso   1.000  H 
  H212     1.0000 0.90270  0.19559  0.54052  Biso   1.000  H 
  H213     1.0000 0.95903  0.16782  0.55597  Biso   1.000  H 
  H214     1.0000 0.06496  0.50088  0.06428  Biso   1.000  H 
  H215     1.0000 0.08873  0.49469  0.12669  Biso   1.000  H 
  H216     1.0000 0.02597  0.47774  0.11411  Biso   1.000  H 
  B273     1.0000 0.00000  0.07190  0.86740  Biso   1.000  B 
  B274     1.0000 0.00000  0.11720  0.88280  Biso   1.000  B 
  B275     1.0000 0.00000  0.13260  0.92810  Biso   1.000  B 
  B276     1.0000 0.00000  0.15650  0.84350  Biso   1.000  B 
  B277     1.0000 0.00000  0.14470  0.79420  Biso   1.000  B 
  B278     1.0000 0.00000  0.20580  0.85530  Biso   1.000  B 
  B279     1.0000 0.00000  0.17950  0.75800  Biso   1.000  B 
  B280     1.0000 0.00000  0.11140  0.78510  Biso   1.000  B 
  B281     1.0000 0.00000  0.24200  0.82050  Biso   1.000  B 
  B282     1.0000 0.00000  0.21490  0.88860  Biso   1.000  B 
  B283     1.0000 0.00000  0.23070  0.76930  Biso   1.000  B 
  B284     1.0000 0.00000  0.26930  0.73070  Biso   1.000  B 
  B285     1.0000 0.00000  0.16950  0.72490  Biso   1.000  B 
  B286     1.0000 0.00000  0.25800  0.67950  Biso   1.000  B 
  N19      1.0000 0.98672  0.29339  0.83999  Biso   1.000  N 
  B287     1.0000 0.00000  0.32050  0.74200  Biso   1.000  B 
  B288     1.0000 0.00000  0.29420  0.64470  Biso   1.000  B 
  N20      1.0000 0.00110  0.20601  0.65933  Biso   1.000  N 
  B289     1.0000 0.00000  0.35530  0.70580  Biso   1.000  B 
  B290     1.0000 0.00000  0.33050  0.77510  Biso   1.000  B 
  B291     1.0000 0.00000  0.34350  0.65650  Biso   1.000  B 
  B292     1.0000 0.00000  0.38280  0.61720  Biso   1.000  B 
  B293     1.0000 0.00000  0.28510  0.61140  Biso   1.000  B 
  B294     1.0000 0.00000  0.38860  0.71490  Biso   1.000  B 
  B295     1.0000 0.00000  0.36740  0.57190  Biso   1.000  B 
  B296     1.0000 0.00000  0.42810  0.63260  Biso   1.000  B 
  C91      1.0000 0.05241  0.19207  0.64633  Biso   1.000  C 
  C92      1.0000 0.93198  0.29978  0.84459  Biso   1.000  C 
  C93      1.0000 0.05438  0.15300  0.60356  Biso   1.000  C 
  C94      1.0000 0.91827  0.33056  0.89149  Biso   1.000  C 
  H217     1.0000 0.00545  0.30127  0.87327  Biso   1.000  H 
  H218     1.0000 0.97601  0.20446  0.62853  Biso   1.000  H 
  C95      1.0000 0.94292  0.38219  0.88642  Biso   1.000  C 
  H219     1.0000 0.91942  0.32211  0.81157  Biso   1.000  H 
  H220     1.0000 0.06992  0.17448  0.67980  Biso   1.000  H 
  H221     1.0000 0.98108  0.37781  0.89600  Biso   1.000  H 
  C96      1.0000 0.91990  0.42360  0.91926  Biso   1.000  C 
  H222     1.0000 0.94165  0.39522  0.84709  Biso   1.000  H 
  C97      1.0000 0.06825  0.17333  0.54955  Biso   1.000  C 
  H223     1.0000 0.03670  0.19754  0.53607  Biso   1.000  H 
  C98      1.0000 0.07859  0.13520  0.50854  Biso   1.000  C 
  H224     1.0000 0.10201  0.19652  0.55349  Biso   1.000  H 
  H225     1.0000 0.07447  0.22622  0.63756  Biso   1.000  H 
  H226     1.0000 0.91339  0.26292  0.84430  Biso   1.000  H 
  H227     1.0000 0.01779  0.13366  0.60155  Biso   1.000  H 
  H228     1.0000 0.08266  0.12526  0.61363  Biso   1.000  H 
  H229     1.0000 0.93185  0.30959  0.92501  Biso   1.000  H 
  H230     1.0000 0.87749  0.33277  0.89553  Biso   1.000  H 
  H231     1.0000 0.92957  0.41852  0.95881  Biso   1.000  H 
  H232     1.0000 0.87728  0.42032  0.91603  Biso   1.000  H 
  C99      1.0000 0.93515  0.47633  0.90400  Biso   1.000  C 
  H233     1.0000 0.04918  0.10606  0.50826  Biso   1.000  H 
  H234     1.0000 0.11600  0.11669  0.51441  Biso   1.000  H 
  C100     1.0000 0.07802  0.15963  0.45750  Biso   1.000  C 
  H235     1.0000 0.09531  0.13549  0.42766  Biso   1.000  H 
  H236     1.0000 0.09724  0.19559  0.45948  Biso   1.000  H 
  H237     1.0000 0.04096  0.16773  0.44403  Biso   1.000  H 
  H238     1.0000 0.92828  0.50007  0.93735  Biso   1.000  H 
  H239     1.0000 0.91482  0.49179  0.87197  Biso   1.000  H 
  H240     1.0000 0.97464  0.47564  0.89558  Biso   1.000  H 
  B297     1.0000 0.00000  0.92810  0.86740  Biso   1.000  B 
  B298     1.0000 0.00000  0.88280  0.88280  Biso   1.000  B 
  B299     1.0000 0.00000  0.86740  0.92810  Biso   1.000  B 
  B300     1.0000 0.00000  0.84350  0.84350  Biso   1.000  B 
  B301     1.0000 0.00000  0.85530  0.79420  Biso   1.000  B 
  B302     1.0000 0.00000  0.79420  0.85530  Biso   1.000  B 
  B303     1.0000 0.00000  0.82050  0.75800  Biso   1.000  B 
  B304     1.0000 0.00000  0.88860  0.78510  Biso   1.000  B 
  B305     1.0000 0.00000  0.75800  0.82050  Biso   1.000  B 
  B306     1.0000 0.00000  0.78510  0.88860  Biso   1.000  B 
  B307     1.0000 0.00000  0.76930  0.76930  Biso   1.000  B 
  B308     1.0000 0.00000  0.73070  0.73070  Biso   1.000  B 
  B309     1.0000 0.00000  0.83050  0.72490  Biso   1.000  B 
  B310     1.0000 0.00000  0.74200  0.67950  Biso   1.000  B 
  N21      1.0000 0.01340  0.70662  0.83993  Biso   1.000  N 
  B311     1.0000 0.00000  0.67950  0.74200  Biso   1.000  B 
  B312     1.0000 0.00000  0.70580  0.64470  Biso   1.000  B 
  N22      1.0000 0.99890  0.79400  0.65933  Biso   1.000  N 
  B313     1.0000 0.00000  0.64470  0.70580  Biso   1.000  B 
  B314     1.0000 0.00000  0.66950  0.77510  Biso   1.000  B 
  B315     1.0000 0.00000  0.65650  0.65650  Biso   1.000  B 
  B316     1.0000 0.00000  0.61720  0.61720  Biso   1.000  B 
  B317     1.0000 0.00000  0.71490  0.61140  Biso   1.000  B 
  B318     1.0000 0.00000  0.61140  0.71490  Biso   1.000  B 
  B319     1.0000 0.00000  0.63260  0.57190  Biso   1.000  B 
  B320     1.0000 0.00000  0.57190  0.63260  Biso   1.000  B 
  C101     1.0000 0.94759  0.80793  0.64633  Biso   1.000  C 
  C102     1.0000 0.06820  0.70015  0.84398  Biso   1.000  C 
  C103     1.0000 0.94562  0.84700  0.60356  Biso   1.000  C 
  C104     1.0000 0.08231  0.66984  0.89102  Biso   1.000  C 
  H241     1.0000 0.99497  0.69874  0.87341  Biso   1.000  H 
  H242     1.0000 0.02399  0.79552  0.62852  Biso   1.000  H 
  C105     1.0000 0.05775  0.61811  0.88672  Biso   1.000  C 
  H243     1.0000 0.08037  0.67736  0.81114  Biso   1.000  H 
  H244     1.0000 0.93008  0.82552  0.67980  Biso   1.000  H 
  H245     1.0000 0.01952  0.62238  0.89624  Biso   1.000  H 
  C106     1.0000 0.08096  0.57749  0.92032  Biso   1.000  C 
  H246     1.0000 0.05912  0.60448  0.84763  Biso   1.000  H 
  C107     1.0000 0.93175  0.82667  0.54955  Biso   1.000  C 
  H247     1.0000 0.96330  0.80245  0.53607  Biso   1.000  H 
  C108     1.0000 0.92142  0.86479  0.50854  Biso   1.000  C 
  H248     1.0000 0.89799  0.80348  0.55349  Biso   1.000  H 
  H249     1.0000 0.92553  0.77378  0.63756  Biso   1.000  H 
  H250     1.0000 0.08691  0.73694  0.84303  Biso   1.000  H 
  H251     1.0000 0.98221  0.86633  0.60155  Biso   1.000  H 
  H252     1.0000 0.91734  0.87474  0.61363  Biso   1.000  H 
  H253     1.0000 0.06911  0.69120  0.92448  Biso   1.000  H 
  H254     1.0000 0.12316  0.66769  0.89459  Biso   1.000  H 
  H255     1.0000 0.07115  0.58346  0.95958  Biso   1.000  H 
  H256     1.0000 0.12359  0.58069  0.91711  Biso   1.000  H 
  C109     1.0000 0.06564  0.52451  0.90657  Biso   1.000  C 
  H257     1.0000 0.95083  0.89392  0.50825  Biso   1.000  H 
  H258     1.0000 0.88401  0.88331  0.51441  Biso   1.000  H 
  C110     1.0000 0.92198  0.84036  0.45750  Biso   1.000  C 
  H259     1.0000 0.90471  0.86452  0.42765  Biso   1.000  H 
  H260     1.0000 0.90274  0.80442  0.45948  Biso   1.000  H 
  H261     1.0000 0.95904  0.83224  0.44404  Biso   1.000  H 
  H262     1.0000 0.07662  0.50118  0.93897  Biso   1.000  H 
  H263     1.0000 0.08271  0.50935  0.87235  Biso   1.000  H 
  H264     1.0000 0.02539  0.52436  0.90357  Biso   1.000  H 
  B321     1.0000 0.00000  0.92810  0.13260  Biso   1.000  B 
  B322     1.0000 0.00000  0.88280  0.11720  Biso   1.000  B 
  B323     1.0000 0.00000  0.86740  0.07190  Biso   1.000  B 
  B324     1.0000 0.00000  0.84350  0.15650  Biso   1.000  B 
  B325     1.0000 0.00000  0.85530  0.20580  Biso   1.000  B 
  B326     1.0000 0.00000  0.79420  0.14470  Biso   1.000  B 
  B327     1.0000 0.00000  0.82050  0.24200  Biso   1.000  B 
  B328     1.0000 0.00000  0.88860  0.21490  Biso   1.000  B 
  B329     1.0000 0.00000  0.75800  0.17950  Biso   1.000  B 
  B330     1.0000 0.00000  0.78510  0.11140  Biso   1.000  B 
  B331     1.0000 0.00000  0.76930  0.23070  Biso   1.000  B 
  B332     1.0000 0.00000  0.73070  0.26930  Biso   1.000  B 
  B333     1.0000 0.00000  0.83050  0.27510  Biso   1.000  B 
  B334     1.0000 0.00000  0.74200  0.32050  Biso   1.000  B 
  N23      1.0000 0.98647  0.70664  0.16013  Biso   1.000  N 
  B335     1.0000 0.00000  0.67950  0.25800  Biso   1.000  B 
  B336     1.0000 0.00000  0.70580  0.35530  Biso   1.000  B 
  N24      1.0000 0.00110  0.79400  0.34066  Biso   1.000  N 
  B337     1.0000 0.00000  0.64470  0.29420  Biso   1.000  B 
  B338     1.0000 0.00000  0.66950  0.22490  Biso   1.000  B 
  B339     1.0000 0.00000  0.65650  0.34350  Biso   1.000  B 
  B340     1.0000 0.00000  0.61720  0.38280  Biso   1.000  B 
  B341     1.0000 0.00000  0.71490  0.38860  Biso   1.000  B 
  B342     1.0000 0.00000  0.61140  0.28510  Biso   1.000  B 
  B343     1.0000 0.00000  0.63260  0.42810  Biso   1.000  B 
  B344     1.0000 0.00000  0.57190  0.36740  Biso   1.000  B 
  C111     1.0000 0.05241  0.80793  0.35366  Biso   1.000  C 
  C112     1.0000 0.93165  0.70001  0.15655  Biso   1.000  C 
  C113     1.0000 0.05438  0.84699  0.39644  Biso   1.000  C 
  C114     1.0000 0.91723  0.67010  0.10943  Biso   1.000  C 
  H265     1.0000 0.00463  0.69871  0.12650  Biso   1.000  H 
  H266     1.0000 0.97600  0.79557  0.37146  Biso   1.000  H 
  C115     1.0000 0.94155  0.61821  0.11334  Biso   1.000  C 
  H267     1.0000 0.91985  0.67675  0.18917  Biso   1.000  H 
  H268     1.0000 0.06993  0.82552  0.32020  Biso   1.000  H 
  H269     1.0000 0.98020  0.62204  0.10501  Biso   1.000  H 
  C116     1.0000 0.91890  0.57875  0.07832  Biso   1.000  C 
  H270     1.0000 0.93895  0.60387  0.15202  Biso   1.000  H 
  C117     1.0000 0.06825  0.82666  0.45045  Biso   1.000  C 
  H271     1.0000 0.03670  0.80245  0.46393  Biso   1.000  H 
  C118     1.0000 0.07857  0.86478  0.49147  Biso   1.000  C 
  H272     1.0000 0.10200  0.80347  0.44651  Biso   1.000  H 
  H273     1.0000 0.07447  0.77378  0.36244  Biso   1.000  H 
  H274     1.0000 0.91276  0.73670  0.15818  Biso   1.000  H 
  H275     1.0000 0.01780  0.86634  0.39843  Biso   1.000  H 
  H276     1.0000 0.08267  0.87472  0.38636  Biso   1.000  H 
  H277     1.0000 0.93017  0.69169  0.07604  Biso   1.000  H 
  H278     1.0000 0.87630  0.66810  0.10628  Biso   1.000  H 
  H279     1.0000 0.92892  0.58593  0.03947  Biso   1.000  H 
  H280     1.0000 0.87618  0.58178  0.08147  Biso   1.000  H 
  C119     1.0000 0.93404  0.52541  0.09046  Biso   1.000  C 
  H281     1.0000 0.04915  0.89391  0.49177  Biso   1.000  H 
  H282     1.0000 0.11597  0.88331  0.48560  Biso   1.000  H 
  C120     1.0000 0.07803  0.84033  0.54251  Biso   1.000  C 
  H283     1.0000 0.09527  0.86450  0.57236  Biso   1.000  H 
  H284     1.0000 0.09731  0.80441  0.54052  Biso   1.000  H 
  H285     1.0000 0.04098  0.83217  0.55597  Biso   1.000  H 
  H286     1.0000 0.91465  0.50260  0.06212  Biso   1.000  H 
  H287     1.0000 0.92374  0.51179  0.12806  Biso   1.000  H 
  H288     1.0000 0.97424  0.52134  0.08332  Biso   1.000  H 
  B345     1.0000 0.13260  0.50000  0.57190  Biso   1.000  B 
  B346     1.0000 0.11720  0.50000  0.61720  Biso   1.000  B 
  B347     1.0000 0.07190  0.50000  0.63260  Biso   1.000  B 
  B348     1.0000 0.15650  0.50000  0.65650  Biso   1.000  B 
  B349     1.0000 0.20580  0.50000  0.64470  Biso   1.000  B 
  B350     1.0000 0.14470  0.50000  0.70580  Biso   1.000  B 
  B351     1.0000 0.24200  0.50000  0.67950  Biso   1.000  B 
  B352     1.0000 0.21490  0.50000  0.61140  Biso   1.000  B 
  B353     1.0000 0.17950  0.50000  0.74200  Biso   1.000  B 
  B354     1.0000 0.11140  0.50000  0.71490  Biso   1.000  B 
  B355     1.0000 0.23070  0.50000  0.73070  Biso   1.000  B 
  B356     1.0000 0.26930  0.50000  0.76930  Biso   1.000  B 
  B357     1.0000 0.27510  0.50000  0.66950  Biso   1.000  B 
  B358     1.0000 0.32050  0.50000  0.75800  Biso   1.000  B 
  N25      1.0000 0.16367  0.52822  0.79009  Biso   1.000  N 
  B359     1.0000 0.25800  0.50000  0.82050  Biso   1.000  B 
  B360     1.0000 0.35530  0.50000  0.79420  Biso   1.000  B 
  N26      1.0000 0.33875  0.47651  0.70892  Biso   1.000  N 
  B361     1.0000 0.29420  0.50000  0.85530  Biso   1.000  B 
  B362     1.0000 0.22490  0.50000  0.83050  Biso   1.000  B 
  B363     1.0000 0.34350  0.50000  0.84350  Biso   1.000  B 
  B364     1.0000 0.38280  0.50000  0.88280  Biso   1.000  B 
  B365     1.0000 0.38860  0.50000  0.78510  Biso   1.000  B 
  B366     1.0000 0.28510  0.50000  0.88860  Biso   1.000  B 
  B367     1.0000 0.42810  0.50000  0.86740  Biso   1.000  B 
  B368     1.0000 0.36740  0.50000  0.92810  Biso   1.000  B 
  C121     1.0000 0.33697  0.42122  0.70601  Biso   1.000  C 
  C122     1.0000 0.14327  0.57865  0.78159  Biso   1.000  C 
  C123     1.0000 0.34693  0.40424  0.65254  Biso   1.000  C 
  C124     1.0000 0.17816  0.61540  0.75332  Biso   1.000  C 
  H289     1.0000 0.13752  0.50654  0.80854  Biso   1.000  H 
  H290     1.0000 0.37393  0.48843  0.70110  Biso   1.000  H 
  C125     1.0000 0.22705  0.63251  0.77950  Biso   1.000  C 
  H291     1.0000 0.10803  0.57533  0.76196  Biso   1.000  H 
  H292     1.0000 0.29964  0.40962  0.71811  Biso   1.000  H 
  H293     1.0000 0.24992  0.59988  0.78807  Biso   1.000  H 
  C126     1.0000 0.21953  0.66886  0.82463  Biso   1.000  C 
  H294     1.0000 0.24707  0.65443  0.74952  Biso   1.000  H 
  C127     1.0000 0.40231  0.39460  0.64696  Biso   1.000  C 
  H295     1.0000 0.42185  0.41958  0.67283  Biso   1.000  H 
  C128     1.0000 0.42228  0.40785  0.59477  Biso   1.000  C 
  H296     1.0000 0.41176  0.35602  0.65882  Biso   1.000  H 
  H297     1.0000 0.36489  0.40551  0.73221  Biso   1.000  H 
  H298     1.0000 0.13695  0.59604  0.81858  Biso   1.000  H 
  H299     1.0000 0.33513  0.43305  0.62509  Biso   1.000  H 
  H300     1.0000 0.32587  0.37040  0.64143  Biso   1.000  H 
  H301     1.0000 0.15663  0.64877  0.74556  Biso   1.000  H 
  H302     1.0000 0.18919  0.59805  0.71771  Biso   1.000  H 
  H303     1.0000 0.20520  0.64971  0.85747  Biso   1.000  H 
  H304     1.0000 0.19157  0.69823  0.81521  Biso   1.000  H 
  C129     1.0000 0.26846  0.69666  0.83938  Biso   1.000  C 
  H305     1.0000 0.39513  0.39474  0.56693  Biso   1.000  H 
  H306     1.0000 0.45754  0.38672  0.59044  Biso   1.000  H 
  C130     1.0000 0.43274  0.46304  0.58244  Biso   1.000  C 
  H307     1.0000 0.39848  0.48139  0.56656  Biso   1.000  H 
  H308     1.0000 0.46186  0.46349  0.55210  Biso   1.000  H 
  H309     1.0000 0.44593  0.48428  0.61375  Biso   1.000  H 
  H310     1.0000 0.29631  0.67187  0.85631  Biso   1.000  H 
  H311     1.0000 0.25969  0.72661  0.86581  Biso   1.000  H 
  H312     1.0000 0.28357  0.71373  0.80516  Biso   1.000  H 
  B369     1.0000 0.86740  0.50000  0.57190  Biso   1.000  B 
  B370     1.0000 0.88280  0.50000  0.61720  Biso   1.000  B 
  B371     1.0000 0.92810  0.50000  0.63260  Biso   1.000  B 
  B372     1.0000 0.84350  0.50000  0.65650  Biso   1.000  B 
  B373     1.0000 0.79420  0.50000  0.64470  Biso   1.000  B 
  B374     1.0000 0.85530  0.50000  0.70580  Biso   1.000  B 
  B375     1.0000 0.75800  0.50000  0.67950  Biso   1.000  B 
  B376     1.0000 0.78510  0.50000  0.61140  Biso   1.000  B 
  B377     1.0000 0.82050  0.50000  0.74200  Biso   1.000  B 
  B378     1.0000 0.88860  0.50000  0.71490  Biso   1.000  B 
  B379     1.0000 0.76930  0.50000  0.73070  Biso   1.000  B 
  B380     1.0000 0.73070  0.50000  0.76930  Biso   1.000  B 
  B381     1.0000 0.72490  0.50000  0.66950  Biso   1.000  B 
  B382     1.0000 0.67950  0.50000  0.75800  Biso   1.000  B 
  N27      1.0000 0.83633  0.47175  0.79006  Biso   1.000  N 
  B383     1.0000 0.74200  0.50000  0.82050  Biso   1.000  B 
  B384     1.0000 0.64470  0.50000  0.79420  Biso   1.000  B 
  N28      1.0000 0.66125  0.52349  0.70892  Biso   1.000  N 
  B385     1.0000 0.70580  0.50000  0.85530  Biso   1.000  B 
  B386     1.0000 0.77510  0.50000  0.83050  Biso   1.000  B 
  B387     1.0000 0.65650  0.50000  0.84350  Biso   1.000  B 
  B388     1.0000 0.61720  0.50000  0.88280  Biso   1.000  B 
  B389     1.0000 0.61140  0.50000  0.78510  Biso   1.000  B 
  B390     1.0000 0.71490  0.50000  0.88860  Biso   1.000  B 
  B391     1.0000 0.57190  0.50000  0.86740  Biso   1.000  B 
  B392     1.0000 0.63260  0.50000  0.92810  Biso   1.000  B 
  C131     1.0000 0.66303  0.57878  0.70601  Biso   1.000  C 
  C132     1.0000 0.85695  0.42142  0.78147  Biso   1.000  C 
  C133     1.0000 0.65307  0.59576  0.65254  Biso   1.000  C 
  C134     1.0000 0.82206  0.38460  0.75330  Biso   1.000  C 
  H313     1.0000 0.86248  0.49354  0.80837  Biso   1.000  H 
  H314     1.0000 0.62607  0.51157  0.70110  Biso   1.000  H 
  C135     1.0000 0.77317  0.36772  0.77957  Biso   1.000  C 
  H315     1.0000 0.89212  0.42494  0.76175  Biso   1.000  H 
  H316     1.0000 0.70036  0.59038  0.71811  Biso   1.000  H 
  H317     1.0000 0.75042  0.40042  0.78812  Biso   1.000  H 
  C136     1.0000 0.78067  0.33140  0.82471  Biso   1.000  C 
  H318     1.0000 0.75300  0.34585  0.74965  Biso   1.000  H 
  C137     1.0000 0.59769  0.60540  0.64697  Biso   1.000  C 
  H319     1.0000 0.57815  0.58042  0.67283  Biso   1.000  H 
  C138     1.0000 0.57772  0.59215  0.59477  Biso   1.000  C 
  H320     1.0000 0.58824  0.64398  0.65882  Biso   1.000  H 
  H321     1.0000 0.63511  0.59449  0.73221  Biso   1.000  H 
  H322     1.0000 0.86350  0.40404  0.81840  Biso   1.000  H 
  H323     1.0000 0.66487  0.56695  0.62509  Biso   1.000  H 
  H324     1.0000 0.67413  0.62960  0.64143  Biso   1.000  H 
  H325     1.0000 0.84350  0.35116  0.74563  Biso   1.000  H 
  H326     1.0000 0.81100  0.40184  0.71763  Biso   1.000  H 
  H327     1.0000 0.79509  0.35052  0.85753  Biso   1.000  H 
  H328     1.0000 0.80858  0.30199  0.81526  Biso   1.000  H 
  C139     1.0000 0.73179  0.30356  0.83952  Biso   1.000  C 
  H329     1.0000 0.60487  0.60526  0.56693  Biso   1.000  H 
  H330     1.0000 0.54246  0.61328  0.59044  Biso   1.000  H 
  C140     1.0000 0.56726  0.53696  0.58244  Biso   1.000  C 
  H331     1.0000 0.60152  0.51861  0.56656  Biso   1.000  H 
  H332     1.0000 0.53813  0.53651  0.55210  Biso   1.000  H 
  H333     1.0000 0.55408  0.51572  0.61375  Biso   1.000  H 
  H334     1.0000 0.70385  0.32832  0.85635  Biso   1.000  H 
  H335     1.0000 0.74063  0.27372  0.86604  Biso   1.000  H 
  H336     1.0000 0.71675  0.28634  0.80534  Biso   1.000  H 
  B393     1.0000 0.86740  0.50000  0.42810  Biso   1.000  B 
  B394     1.0000 0.88280  0.50000  0.38280  Biso   1.000  B 
  B395     1.0000 0.92810  0.50000  0.36740  Biso   1.000  B 
  B396     1.0000 0.84350  0.50000  0.34350  Biso   1.000  B 
  B397     1.0000 0.79420  0.50000  0.35530  Biso   1.000  B 
  B398     1.0000 0.85530  0.50000  0.29420  Biso   1.000  B 
  B399     1.0000 0.75800  0.50000  0.32050  Biso   1.000  B 
  B400     1.0000 0.78510  0.50000  0.38860  Biso   1.000  B 
  B401     1.0000 0.82050  0.50000  0.25800  Biso   1.000  B 
  B402     1.0000 0.88860  0.50000  0.28510  Biso   1.000  B 
  B403     1.0000 0.76930  0.50000  0.26930  Biso   1.000  B 
  B404     1.0000 0.73070  0.50000  0.23070  Biso   1.000  B 
  B405     1.0000 0.72490  0.50000  0.33050  Biso   1.000  B 
  B406     1.0000 0.67950  0.50000  0.24200  Biso   1.000  B 
  N29      1.0000 0.83635  0.52818  0.20992  Biso   1.000  N 
  B407     1.0000 0.74200  0.50000  0.17950  Biso   1.000  B 
  B408     1.0000 0.64470  0.50000  0.20580  Biso   1.000  B 
  N30      1.0000 0.66125  0.47651  0.29109  Biso   1.000  N 
  B409     1.0000 0.70580  0.50000  0.14470  Biso   1.000  B 
  B410     1.0000 0.77510  0.50000  0.16950  Biso   1.000  B 
  B411     1.0000 0.65650  0.50000  0.15650  Biso   1.000  B 
  B412     1.0000 0.61720  0.50000  0.11720  Biso   1.000  B 
  B413     1.0000 0.61140  0.50000  0.21490  Biso   1.000  B 
  B414     1.0000 0.71490  0.50000  0.11140  Biso   1.000  B 
  B415     1.0000 0.57190  0.50000  0.13260  Biso   1.000  B 
  B416     1.0000 0.63260  0.50000  0.07190  Biso   1.000  B 
  C141     1.0000 0.66303  0.42122  0.29399  Biso   1.000  C 
  C142     1.0000 0.85683  0.57857  0.21834  Biso   1.000  C 
  C143     1.0000 0.65307  0.40424  0.34746  Biso   1.000  C 
  C144     1.0000 0.82209  0.61549  0.24649  Biso   1.000  C 
  H337     1.0000 0.86231  0.50653  0.19110  Biso   1.000  H 
  H338     1.0000 0.62606  0.48843  0.29890  Biso   1.000  H 
  C145     1.0000 0.77296  0.63224  0.22041  Biso   1.000  C 
  H339     1.0000 0.89214  0.57535  0.23781  Biso   1.000  H 
  H340     1.0000 0.70036  0.40962  0.28189  Biso   1.000  H 
  H341     1.0000 0.75016  0.59952  0.21202  Biso   1.000  H 
  C146     1.0000 0.78013  0.66852  0.17518  Biso   1.000  C 
  H342     1.0000 0.75295  0.65419  0.25040  Biso   1.000  H 
  C147     1.0000 0.59770  0.39459  0.35304  Biso   1.000  C 
  H343     1.0000 0.57815  0.41957  0.32718  Biso   1.000  H 
  C148     1.0000 0.57773  0.40784  0.40524  Biso   1.000  C 
  H344     1.0000 0.58825  0.35601  0.34119  Biso   1.000  H 
  H345     1.0000 0.63511  0.40551  0.26780  Biso   1.000  H 
  H346     1.0000 0.86281  0.59585  0.18126  Biso   1.000  H 
  H347     1.0000 0.66487  0.43305  0.37491  Biso   1.000  H 
  H348     1.0000 0.67414  0.37040  0.35857  Biso   1.000  H 
  H349     1.0000 0.84361  0.64895  0.25388  Biso   1.000  H 
  H350     1.0000 0.81134  0.59836  0.28229  Biso   1.000  H 
  H351     1.0000 0.79407  0.64927  0.14224  Biso   1.000  H 
  H352     1.0000 0.80824  0.69786  0.18426  Biso   1.000  H 
  C149     1.0000 0.73110  0.69630  0.16078  Biso   1.000  C 
  H353     1.0000 0.60488  0.39474  0.43308  Biso   1.000  H 
  H354     1.0000 0.54247  0.38670  0.40958  Biso   1.000  H 
  C150     1.0000 0.56726  0.46303  0.41756  Biso   1.000  C 
  H355     1.0000 0.60151  0.48138  0.43343  Biso   1.000  H 
  H356     1.0000 0.53814  0.46348  0.44791  Biso   1.000  H 
  H357     1.0000 0.55406  0.48427  0.38625  Biso   1.000  H 
  H358     1.0000 0.70318  0.67146  0.14403  Biso   1.000  H 
  H359     1.0000 0.73963  0.72626  0.13429  Biso   1.000  H 
  H360     1.0000 0.71619  0.71333  0.19511  Biso   1.000  H 
  B417     1.0000 0.13260  0.50000  0.42810  Biso   1.000  B 
  B418     1.0000 0.11720  0.50000  0.38280  Biso   1.000  B 
  B419     1.0000 0.07190  0.50000  0.36740  Biso   1.000  B 
  B420     1.0000 0.15650  0.50000  0.34350  Biso   1.000  B 
  B421     1.0000 0.20580  0.50000  0.35530  Biso   1.000  B 
  B422     1.0000 0.14470  0.50000  0.29420  Biso   1.000  B 
  B423     1.0000 0.24200  0.50000  0.32050  Biso   1.000  B 
  B424     1.0000 0.21490  0.50000  0.38860  Biso   1.000  B 
  B425     1.0000 0.17950  0.50000  0.25800  Biso   1.000  B 
  B426     1.0000 0.11140  0.50000  0.28510  Biso   1.000  B 
  B427     1.0000 0.23070  0.50000  0.26930  Biso   1.000  B 
  B428     1.0000 0.26930  0.50000  0.23070  Biso   1.000  B 
  B429     1.0000 0.27510  0.50000  0.33050  Biso   1.000  B 
  B430     1.0000 0.32050  0.50000  0.24200  Biso   1.000  B 
  N31      1.0000 0.16368  0.47154  0.21003  Biso   1.000  N 
  B431     1.0000 0.25800  0.50000  0.17950  Biso   1.000  B 
  B432     1.0000 0.35530  0.50000  0.20580  Biso   1.000  B 
  N32      1.0000 0.33875  0.52349  0.29109  Biso   1.000  N 
  B433     1.0000 0.29420  0.50000  0.14470  Biso   1.000  B 
  B434     1.0000 0.22490  0.50000  0.16950  Biso   1.000  B 
  B435     1.0000 0.34350  0.50000  0.15650  Biso   1.000  B 
  B436     1.0000 0.38280  0.50000  0.11720  Biso   1.000  B 
  B437     1.0000 0.38860  0.50000  0.21490  Biso   1.000  B 
  B438     1.0000 0.28510  0.50000  0.11140  Biso   1.000  B 
  B439     1.0000 0.42810  0.50000  0.13260  Biso   1.000  B 
  B440     1.0000 0.36740  0.50000  0.07190  Biso   1.000  B 
  C151     1.0000 0.33697  0.57878  0.29399  Biso   1.000  C 
  C152     1.0000 0.14262  0.42149  0.21904  Biso   1.000  C 
  C153     1.0000 0.34693  0.59576  0.34746  Biso   1.000  C 
  C154     1.0000 0.17761  0.38451  0.24689  Biso   1.000  C 
  H361     1.0000 0.13759  0.49339  0.19175  Biso   1.000  H 
  H362     1.0000 0.37394  0.51157  0.29890  Biso   1.000  H 
  C155     1.0000 0.22658  0.36837  0.22036  Biso   1.000  C 
  H363     1.0000 0.10770  0.42545  0.23913  Biso   1.000  H 
  H364     1.0000 0.29964  0.59038  0.28188  Biso   1.000  H 
  H365     1.0000 0.24896  0.40130  0.21188  Biso   1.000  H 
  C156     1.0000 0.21924  0.33217  0.17505  Biso   1.000  C 
  H366     1.0000 0.24716  0.34658  0.25005  Biso   1.000  H 
  C157     1.0000 0.40230  0.60541  0.35304  Biso   1.000  C 
  H367     1.0000 0.42184  0.58043  0.32718  Biso   1.000  H 
  C158     1.0000 0.42227  0.59216  0.40524  Biso   1.000  C 
  H368     1.0000 0.41175  0.64399  0.34118  Biso   1.000  H 
  H369     1.0000 0.36489  0.59449  0.26779  Biso   1.000  H 
  H370     1.0000 0.13541  0.40405  0.18230  Biso   1.000  H 
  H371     1.0000 0.33512  0.56696  0.37491  Biso   1.000  H 
  H372     1.0000 0.32586  0.62961  0.35856  Biso   1.000  H 
  H373     1.0000 0.15641  0.35083  0.25420  Biso   1.000  H 
  H374     1.0000 0.18861  0.40144  0.28274  Biso   1.000  H 
  H375     1.0000 0.20482  0.35134  0.14225  Biso   1.000  H 
  H376     1.0000 0.19133  0.30272  0.18436  Biso   1.000  H 
  C159     1.0000 0.26807  0.30423  0.16019  Biso   1.000  C 
  H377     1.0000 0.39511  0.60526  0.43307  Biso   1.000  H 
  H378     1.0000 0.45752  0.61330  0.40958  Biso   1.000  H 
  C160     1.0000 0.43274  0.53697  0.41756  Biso   1.000  C 
  H379     1.0000 0.39848  0.51862  0.43344  Biso   1.000  H 
  H380     1.0000 0.46186  0.53653  0.44791  Biso   1.000  H 
  H381     1.0000 0.44594  0.51573  0.38625  Biso   1.000  H 
  H382     1.0000 0.29622  0.32896  0.14366  Biso   1.000  H 
  H383     1.0000 0.25917  0.27464  0.13340  Biso   1.000  H 
  H384     1.0000 0.28286  0.28668  0.19430  Biso   1.000  H 
  B441     1.0000 0.07190  0.63260  0.50000  Biso   1.000  B 
  B442     1.0000 0.11720  0.61720  0.50000  Biso   1.000  B 
  B443     1.0000 0.13260  0.57190  0.50000  Biso   1.000  B 
  B444     1.0000 0.15650  0.65650  0.50000  Biso   1.000  B 
  B445     1.0000 0.14470  0.70580  0.50000  Biso   1.000  B 
  B446     1.0000 0.20580  0.64470  0.50000  Biso   1.000  B 
  B447     1.0000 0.17950  0.74200  0.50000  Biso   1.000  B 
  B448     1.0000 0.11140  0.71490  0.50000  Biso   1.000  B 
  B449     1.0000 0.24200  0.67950  0.50000  Biso   1.000  B 
  B450     1.0000 0.21490  0.61140  0.50000  Biso   1.000  B 
  B451     1.0000 0.23070  0.73070  0.50000  Biso   1.000  B 
  B452     1.0000 0.26930  0.76930  0.50000  Biso   1.000  B 
  B453     1.0000 0.16950  0.77510  0.50000  Biso   1.000  B 
  B454     1.0000 0.25800  0.82050  0.50000  Biso   1.000  B 
  N33      1.0000 0.29263  0.65727  0.49241  Biso   1.000  N 
  B455     1.0000 0.32050  0.75800  0.50000  Biso   1.000  B 
  B456     1.0000 0.29420  0.85530  0.50000  Biso   1.000  B 
  N34      1.0000 0.20679  0.84202  0.48558  Biso   1.000  N 
  B457     1.0000 0.35530  0.79420  0.50000  Biso   1.000  B 
  B458     1.0000 0.33050  0.72490  0.50000  Biso   1.000  B 
  B459     1.0000 0.34350  0.84350  0.50000  Biso   1.000  B 
  B460     1.0000 0.38280  0.88280  0.50000  Biso   1.000  B 
  B461     1.0000 0.28510  0.88860  0.50000  Biso   1.000  B 
  B462     1.0000 0.38860  0.78510  0.50000  Biso   1.000  B 
  B463     1.0000 0.36740  0.92810  0.50000  Biso   1.000  B 
  B464     1.0000 0.42810  0.86740  0.50000  Biso   1.000  B 
  C161     1.0000 0.20494  0.85498  0.43247  Biso   1.000  C 
  C162     1.0000 0.30278  0.62261  0.53480  Biso   1.000  C 
  C163     1.0000 0.22371  0.90667  0.41654  Biso   1.000  C 
  C164     1.0000 0.35957  0.60707  0.53884  Biso   1.000  C 
  H385     1.0000 0.29071  0.63459  0.46081  Biso   1.000  H 
  H386     1.0000 0.20198  0.87367  0.50824  Biso   1.000  H 
  C165     1.0000 0.38956  0.65578  0.53718  Biso   1.000  C 
  H387     1.0000 0.29140  0.64195  0.56948  Biso   1.000  H 
  H388     1.0000 0.16558  0.85318  0.41812  Biso   1.000  H 
  H389     1.0000 0.38514  0.67183  0.49905  Biso   1.000  H 
  C166     1.0000 0.44569  0.65729  0.54561  Biso   1.000  C 
  H390     1.0000 0.37080  0.68143  0.56565  Biso   1.000  H 
  C167     1.0000 0.19353  0.95084  0.43859  Biso   1.000  C 
  H391     1.0000 0.18117  0.94535  0.47648  Biso   1.000  H 
  C168     1.0000 0.14802  0.96599  0.40744  Biso   1.000  C 
  H392     1.0000 0.21799  0.98433  0.44037  Biso   1.000  H 
  H393     1.0000 0.22633  0.82722  0.41051  Biso   1.000  H 
  H394     1.0000 0.28080  0.58722  0.53149  Biso   1.000  H 
  H395     1.0000 0.21873  0.90708  0.37554  Biso   1.000  H 
  H396     1.0000 0.26419  0.91161  0.42303  Biso   1.000  H 
  H397     1.0000 0.37043  0.58257  0.50709  Biso   1.000  H 
  H398     1.0000 0.36645  0.58688  0.57346  Biso   1.000  H 
  H399     1.0000 0.46456  0.63655  0.51652  Biso   1.000  H 
  H400     1.0000 0.45478  0.63969  0.58136  Biso   1.000  H 
  C169     1.0000 0.46199  0.71121  0.54705  Biso   1.000  C 
  H401     1.0000 0.11858  0.93805  0.41554  Biso   1.000  H 
  H402     1.0000 0.15836  0.96315  0.36867  Biso   1.000  H 
  C170     1.0000 0.12810  0.01666  0.41869  Biso   1.000  C 
  H403     1.0000 0.11076  0.01612  0.45654  Biso   1.000  H 
  H404     1.0000 0.09759  0.02454  0.39175  Biso   1.000  H 
  H405     1.0000 0.15720  0.04669  0.41623  Biso   1.000  H 
  H406     1.0000 0.45522  0.72905  0.51105  Biso   1.000  H 
  H407     1.0000 0.50080  0.71332  0.55860  Biso   1.000  H 
  H408     1.0000 0.43928  0.73231  0.57393  Biso   1.000  H 
  B465     1.0000 0.07190  0.36740  0.50000  Biso   1.000  B 
  B466     1.0000 0.11720  0.38280  0.50000  Biso   1.000  B 
  B467     1.0000 0.13260  0.42810  0.50000  Biso   1.000  B 
  B468     1.0000 0.15650  0.34350  0.50000  Biso   1.000  B 
  B469     1.0000 0.14470  0.29420  0.50000  Biso   1.000  B 
  B470     1.0000 0.20580  0.35530  0.50000  Biso   1.000  B 
  B471     1.0000 0.17950  0.25800  0.50000  Biso   1.000  B 
  B472     1.0000 0.11140  0.28510  0.50000  Biso   1.000  B 
  B473     1.0000 0.24200  0.32050  0.50000  Biso   1.000  B 
  B474     1.0000 0.21490  0.38860  0.50000  Biso   1.000  B 
  B475     1.0000 0.23070  0.26930  0.50000  Biso   1.000  B 
  B476     1.0000 0.26930  0.23070  0.50000  Biso   1.000  B 
  B477     1.0000 0.16950  0.22490  0.50000  Biso   1.000  B 
  B478     1.0000 0.25800  0.17950  0.50000  Biso   1.000  B 
  N35      1.0000 0.29263  0.34273  0.50760  Biso   1.000  N 
  B479     1.0000 0.32050  0.24200  0.50000  Biso   1.000  B 
  B480     1.0000 0.29420  0.14470  0.50000  Biso   1.000  B 
  N36      1.0000 0.20679  0.15797  0.51442  Biso   1.000  N 
  B481     1.0000 0.35530  0.20580  0.50000  Biso   1.000  B 
  B482     1.0000 0.33050  0.27510  0.50000  Biso   1.000  B 
  B483     1.0000 0.34350  0.15650  0.50000  Biso   1.000  B 
  B484     1.0000 0.38280  0.11720  0.50000  Biso   1.000  B 
  B485     1.0000 0.28510  0.11140  0.50000  Biso   1.000  B 
  B486     1.0000 0.38860  0.21490  0.50000  Biso   1.000  B 
  B487     1.0000 0.36740  0.07190  0.50000  Biso   1.000  B 
  B488     1.0000 0.42810  0.13260  0.50000  Biso   1.000  B 
  C171     1.0000 0.20494  0.14502  0.56753  Biso   1.000  C 
  C172     1.0000 0.30278  0.37738  0.46520  Biso   1.000  C 
  C173     1.0000 0.22371  0.09332  0.58346  Biso   1.000  C 
  C174     1.0000 0.35957  0.39294  0.46117  Biso   1.000  C 
  H409     1.0000 0.29071  0.36541  0.53919  Biso   1.000  H 
  H410     1.0000 0.20199  0.12633  0.49177  Biso   1.000  H 
  C175     1.0000 0.38956  0.34423  0.46281  Biso   1.000  C 
  H411     1.0000 0.29140  0.35804  0.43052  Biso   1.000  H 
  H412     1.0000 0.16558  0.14681  0.58188  Biso   1.000  H 
  H413     1.0000 0.38514  0.32816  0.50094  Biso   1.000  H 
  C176     1.0000 0.44569  0.34272  0.45439  Biso   1.000  C 
  H414     1.0000 0.37081  0.31858  0.43434  Biso   1.000  H 
  C177     1.0000 0.19351  0.04916  0.56143  Biso   1.000  C 
  H415     1.0000 0.18113  0.05465  0.52355  Biso   1.000  H 
  C178     1.0000 0.14803  0.03397  0.59260  Biso   1.000  C 
  H416     1.0000 0.21798  0.01567  0.55962  Biso   1.000  H 
  H417     1.0000 0.22633  0.17277  0.58949  Biso   1.000  H 
  H418     1.0000 0.28080  0.41278  0.46851  Biso   1.000  H 
  H419     1.0000 0.21874  0.09292  0.62446  Biso   1.000  H 
  H420     1.0000 0.26418  0.08837  0.57696  Biso   1.000  H 
  H421     1.0000 0.37043  0.41743  0.49292  Biso   1.000  H 
  H422     1.0000 0.36644  0.41314  0.42655  Biso   1.000  H 
  H423     1.0000 0.46456  0.36346  0.48349  Biso   1.000  H 
  H424     1.0000 0.45479  0.36034  0.41864  Biso   1.000  H 
  C179     1.0000 0.46201  0.28881  0.45293  Biso   1.000  C 
  H425     1.0000 0.11855  0.06187  0.58450  Biso   1.000  H 
  H426     1.0000 0.15838  0.03685  0.63137  Biso   1.000  H 
  C180     1.0000 0.12816  0.98327  0.58136  Biso   1.000  C 
  H427     1.0000 0.11060  0.98383  0.54362  Biso   1.000  H 
  H428     1.0000 0.09779  0.97533  0.60844  Biso   1.000  H 
  H429     1.0000 0.15730  0.95326  0.58363  Biso   1.000  H 
  H430     1.0000 0.45525  0.27097  0.48893  Biso   1.000  H 
  H431     1.0000 0.50081  0.28672  0.44137  Biso   1.000  H 
  H432     1.0000 0.43930  0.26772  0.42606  Biso   1.000  H 
  B489     1.0000 0.92810  0.36740  0.50000  Biso   1.000  B 
  B490     1.0000 0.88280  0.38280  0.50000  Biso   1.000  B 
  B491     1.0000 0.86740  0.42810  0.50000  Biso   1.000  B 
  B492     1.0000 0.84350  0.34350  0.50000  Biso   1.000  B 
  B493     1.0000 0.85530  0.29420  0.50000  Biso   1.000  B 
  B494     1.0000 0.79420  0.35530  0.50000  Biso   1.000  B 
  B495     1.0000 0.82050  0.25800  0.50000  Biso   1.000  B 
  B496     1.0000 0.88860  0.28510  0.50000  Biso   1.000  B 
  B497     1.0000 0.75800  0.32050  0.50000  Biso   1.000  B 
  B498     1.0000 0.78510  0.38860  0.50000  Biso   1.000  B 
  B499     1.0000 0.76930  0.26930  0.50000  Biso   1.000  B 
  B500     1.0000 0.73070  0.23070  0.50000  Biso   1.000  B 
  B501     1.0000 0.83050  0.22490  0.50000  Biso   1.000  B 
  B502     1.0000 0.74200  0.17950  0.50000  Biso   1.000  B 
  N37      1.0000 0.70737  0.34273  0.49240  Biso   1.000  N 
  B503     1.0000 0.67950  0.24200  0.50000  Biso   1.000  B 
  B504     1.0000 0.70580  0.14470  0.50000  Biso   1.000  B 
  N38      1.0000 0.79321  0.15798  0.48558  Biso   1.000  N 
  B505     1.0000 0.64470  0.20580  0.50000  Biso   1.000  B 
  B506     1.0000 0.66950  0.27510  0.50000  Biso   1.000  B 
  B507     1.0000 0.65650  0.15650  0.50000  Biso   1.000  B 
  B508     1.0000 0.61720  0.11720  0.50000  Biso   1.000  B 
  B509     1.0000 0.71490  0.11140  0.50000  Biso   1.000  B 
  B510     1.0000 0.61140  0.21490  0.50000  Biso   1.000  B 
  B511     1.0000 0.63260  0.07190  0.50000  Biso   1.000  B 
  B512     1.0000 0.57190  0.13260  0.50000  Biso   1.000  B 
  C181     1.0000 0.79506  0.14502  0.43247  Biso   1.000  C 
  C182     1.0000 0.69722  0.37738  0.53480  Biso   1.000  C 
  C183     1.0000 0.77629  0.09333  0.41654  Biso   1.000  C 
  C184     1.0000 0.64042  0.39292  0.53884  Biso   1.000  C 
  H433     1.0000 0.70929  0.36541  0.46081  Biso   1.000  H 
  H434     1.0000 0.79801  0.12633  0.50823  Biso   1.000  H 
  C185     1.0000 0.61043  0.34422  0.53718  Biso   1.000  C 
  H435     1.0000 0.70860  0.35804  0.56948  Biso   1.000  H 
  H436     1.0000 0.83442  0.14682  0.41811  Biso   1.000  H 
  H437     1.0000 0.61486  0.32816  0.49905  Biso   1.000  H 
  C186     1.0000 0.55431  0.34271  0.54560  Biso   1.000  C 
  H438     1.0000 0.62919  0.31856  0.56565  Biso   1.000  H 
  C187     1.0000 0.80648  0.04916  0.43859  Biso   1.000  C 
  H439     1.0000 0.81884  0.05465  0.47647  Biso   1.000  H 
  C188     1.0000 0.85197  0.03400  0.40743  Biso   1.000  C 
  H440     1.0000 0.78201  0.01567  0.44037  Biso   1.000  H 
  H441     1.0000 0.77367  0.17277  0.41051  Biso   1.000  H 
  H442     1.0000 0.71919  0.41277  0.53149  Biso   1.000  H 
  H443     1.0000 0.78126  0.09292  0.37554  Biso   1.000  H 
  H444     1.0000 0.73581  0.08839  0.42303  Biso   1.000  H 
  H445     1.0000 0.62956  0.41743  0.50709  Biso   1.000  H 
  H446     1.0000 0.63355  0.41312  0.57347  Biso   1.000  H 
  H447     1.0000 0.53544  0.36345  0.51651  Biso   1.000  H 
  H448     1.0000 0.54521  0.36032  0.58135  Biso   1.000  H 
  C189     1.0000 0.53799  0.28879  0.54704  Biso   1.000  C 
  H449     1.0000 0.88142  0.06193  0.41553  Biso   1.000  H 
  H450     1.0000 0.84163  0.03685  0.36866  Biso   1.000  H 
  C190     1.0000 0.87188  0.98332  0.41868  Biso   1.000  C 
  H451     1.0000 0.88928  0.98388  0.45651  Biso   1.000  H 
  H452     1.0000 0.90236  0.97543  0.39171  Biso   1.000  H 
  H453     1.0000 0.84278  0.95330  0.41627  Biso   1.000  H 
  H454     1.0000 0.54477  0.27096  0.51104  Biso   1.000  H 
  H455     1.0000 0.49919  0.28669  0.55860  Biso   1.000  H 
  H456     1.0000 0.56070  0.26769  0.57392  Biso   1.000  H 
  B513     1.0000 0.92810  0.63260  0.50000  Biso   1.000  B 
  B514     1.0000 0.88280  0.61720  0.50000  Biso   1.000  B 
  B515     1.0000 0.86740  0.57190  0.50000  Biso   1.000  B 
  B516     1.0000 0.84350  0.65650  0.50000  Biso   1.000  B 
  B517     1.0000 0.85530  0.70580  0.50000  Biso   1.000  B 
  B518     1.0000 0.79420  0.64470  0.50000  Biso   1.000  B 
  B519     1.0000 0.82050  0.74200  0.50000  Biso   1.000  B 
  B520     1.0000 0.88860  0.71490  0.50000  Biso   1.000  B 
  B521     1.0000 0.75800  0.67950  0.50000  Biso   1.000  B 
  B522     1.0000 0.78510  0.61140  0.50000  Biso   1.000  B 
  B523     1.0000 0.76930  0.73070  0.50000  Biso   1.000  B 
  B524     1.0000 0.73070  0.76930  0.50000  Biso   1.000  B 
  B525     1.0000 0.83050  0.77510  0.50000  Biso   1.000  B 
  B526     1.0000 0.74200  0.82050  0.50000  Biso   1.000  B 
  N39      1.0000 0.70737  0.65727  0.50760  Biso   1.000  N 
  B527     1.0000 0.67950  0.75800  0.50000  Biso   1.000  B 
  B528     1.0000 0.70580  0.85530  0.50000  Biso   1.000  B 
  N40      1.0000 0.79321  0.84202  0.51442  Biso   1.000  N 
  B529     1.0000 0.64470  0.79420  0.50000  Biso   1.000  B 
  B530     1.0000 0.66950  0.72490  0.50000  Biso   1.000  B 
  B531     1.0000 0.65650  0.84350  0.50000  Biso   1.000  B 
  B532     1.0000 0.61720  0.88280  0.50000  Biso   1.000  B 
  B533     1.0000 0.71490  0.88860  0.50000  Biso   1.000  B 
  B534     1.0000 0.61140  0.78510  0.50000  Biso   1.000  B 
  B535     1.0000 0.63260  0.92810  0.50000  Biso   1.000  B 
  B536     1.0000 0.57190  0.86740  0.50000  Biso   1.000  B 
  C191     1.0000 0.79507  0.85498  0.56753  Biso   1.000  C 
  C192     1.0000 0.69723  0.62262  0.46520  Biso   1.000  C 
  C193     1.0000 0.77629  0.90668  0.58346  Biso   1.000  C 
  C194     1.0000 0.64043  0.60706  0.46117  Biso   1.000  C 
  H457     1.0000 0.70929  0.63459  0.53919  Biso   1.000  H 
  H458     1.0000 0.79801  0.87367  0.49177  Biso   1.000  H 
  C195     1.0000 0.61044  0.65577  0.46282  Biso   1.000  C 
  H459     1.0000 0.70859  0.64196  0.43052  Biso   1.000  H 
  H460     1.0000 0.83442  0.85318  0.58188  Biso   1.000  H 
  H461     1.0000 0.61486  0.67183  0.50095  Biso   1.000  H 
  C196     1.0000 0.55430  0.65728  0.45440  Biso   1.000  C 
  H462     1.0000 0.62919  0.68142  0.43435  Biso   1.000  H 
  C197     1.0000 0.80649  0.95084  0.56142  Biso   1.000  C 
  H463     1.0000 0.81886  0.94535  0.52354  Biso   1.000  H 
  C198     1.0000 0.85197  0.96602  0.59259  Biso   1.000  C 
  H464     1.0000 0.78202  0.98433  0.55962  Biso   1.000  H 
  H465     1.0000 0.77368  0.82723  0.58949  Biso   1.000  H 
  H466     1.0000 0.71920  0.58723  0.46850  Biso   1.000  H 
  H467     1.0000 0.78126  0.90708  0.62446  Biso   1.000  H 
  H468     1.0000 0.73582  0.91162  0.57696  Biso   1.000  H 
  H469     1.0000 0.62958  0.58257  0.49293  Biso   1.000  H 
  H470     1.0000 0.63355  0.58686  0.42655  Biso   1.000  H 
  H471     1.0000 0.53544  0.63654  0.48350  Biso   1.000  H 
  H472     1.0000 0.54521  0.63966  0.41865  Biso   1.000  H 
  C199     1.0000 0.53799  0.71119  0.45294  Biso   1.000  C 
  H473     1.0000 0.88145  0.93811  0.58448  Biso   1.000  H 
  H474     1.0000 0.84163  0.96314  0.63136  Biso   1.000  H 
  C200     1.0000 0.87185  0.01671  0.58135  Biso   1.000  C 
  H475     1.0000 0.88937  0.01616  0.54359  Biso   1.000  H 
  H476     1.0000 0.90225  0.02464  0.60841  Biso   1.000  H 
  H477     1.0000 0.84272  0.04672  0.58367  Biso   1.000  H 
  H478     1.0000 0.54477  0.72903  0.48894  Biso   1.000  H 
  H479     1.0000 0.49919  0.71329  0.44139  Biso   1.000  H 
  H480     1.0000 0.56070  0.73228  0.42607  Biso   1.000  H 
  B537     1.0000 0.50000  0.07190  0.63260  Biso   1.000  B 
  B538     1.0000 0.50000  0.11720  0.61720  Biso   1.000  B 
  B539     1.0000 0.50000  0.13260  0.57190  Biso   1.000  B 
  B540     1.0000 0.50000  0.15650  0.65650  Biso   1.000  B 
  B541     1.0000 0.50000  0.14470  0.70580  Biso   1.000  B 
  B542     1.0000 0.50000  0.20580  0.64470  Biso   1.000  B 
  B543     1.0000 0.50000  0.17950  0.74200  Biso   1.000  B 
  B544     1.0000 0.50000  0.11140  0.71490  Biso   1.000  B 
  B545     1.0000 0.50000  0.24200  0.67950  Biso   1.000  B 
  B546     1.0000 0.50000  0.21490  0.61140  Biso   1.000  B 
  B547     1.0000 0.50000  0.23070  0.73070  Biso   1.000  B 
  B548     1.0000 0.50000  0.26930  0.76930  Biso   1.000  B 
  B549     1.0000 0.50000  0.16950  0.77510  Biso   1.000  B 
  B550     1.0000 0.50000  0.25800  0.82050  Biso   1.000  B 
  N41      1.0000 0.53236  0.28647  0.66681  Biso   1.000  N 
  B551     1.0000 0.50000  0.32050  0.75800  Biso   1.000  B 
  B552     1.0000 0.50000  0.29420  0.85530  Biso   1.000  B 
  N42      1.0000 0.48858  0.20695  0.84247  Biso   1.000  N 
  B553     1.0000 0.50000  0.35530  0.79420  Biso   1.000  B 
  B554     1.0000 0.50000  0.33050  0.72490  Biso   1.000  B 
  B555     1.0000 0.50000  0.34350  0.84350  Biso   1.000  B 
  B556     1.0000 0.50000  0.38280  0.88280  Biso   1.000  B 
  B557     1.0000 0.50000  0.28510  0.88860  Biso   1.000  B 
  B558     1.0000 0.50000  0.38860  0.78510  Biso   1.000  B 
  B559     1.0000 0.50000  0.36740  0.92810  Biso   1.000  B 
  B560     1.0000 0.50000  0.42810  0.86740  Biso   1.000  B 
  C201     1.0000 0.43567  0.20101  0.85884  Biso   1.000  C 
  C202     1.0000 0.58608  0.27262  0.67190  Biso   1.000  C 
  C203     1.0000 0.41999  0.21551  0.91218  Biso   1.000  C 
  C204     1.0000 0.62058  0.31934  0.67751  Biso   1.000  C 
  H481     1.0000 0.52062  0.30824  0.63695  Biso   1.000  H 
  H482     1.0000 0.51665  0.19696  0.86823  Biso   1.000  H 
  C205     1.0000 0.62223  0.34291  0.72943  Biso   1.000  C 
  H483     1.0000 0.59449  0.24926  0.70502  Biso   1.000  H 
  H484     1.0000 0.42831  0.16151  0.85798  Biso   1.000  H 
  H485     1.0000 0.59269  0.32471  0.75290  Biso   1.000  H 
  C206     1.0000 0.61267  0.39850  0.72973  Biso   1.000  C 
  H486     1.0000 0.65873  0.33705  0.74591  Biso   1.000  H 
  C207     1.0000 0.44264  0.18447  0.95520  Biso   1.000  C 
  H487     1.0000 0.48210  0.17406  0.94279  Biso   1.000  H 
  C208     1.0000 0.41486  0.13473  0.96579  Biso   1.000  C 
  H488     1.0000 0.44560  0.20565  0.99003  Biso   1.000  H 
  H489     1.0000 0.41168  0.22110  0.83240  Biso   1.000  H 
  H490     1.0000 0.59691  0.25099  0.63853  Biso   1.000  H 
  H491     1.0000 0.37818  0.20956  0.91331  Biso   1.000  H 
  H492     1.0000 0.42509  0.25719  0.91566  Biso   1.000  H 
  H493     1.0000 0.61311  0.34705  0.64802  Biso   1.000  H 
  H494     1.0000 0.65865  0.30579  0.67011  Biso   1.000  H 
  H495     1.0000 0.64729  0.41552  0.71432  Biso   1.000  H 
  H496     1.0000 0.60895  0.40882  0.76913  Biso   1.000  H 
  C209     1.0000 0.56705  0.41693  0.69849  Biso   1.000  C 
  H497     1.0000 0.42037  0.11465  0.93104  Biso   1.000  H 
  H498     1.0000 0.37457  0.14080  0.97115  Biso   1.000  H 
  C210     1.0000 0.43510  0.10158  0.00737  Biso   1.000  C 
  H499     1.0000 0.46488  0.11885  0.03441  Biso   1.000  H 
  H500     1.0000 0.45495  0.06797  0.99078  Biso   1.000  H 
  H501     1.0000 0.40402  0.08659  0.02850  Biso   1.000  H 
  H502     1.0000 0.56318  0.45690  0.70788  Biso   1.000  H 
  H503     1.0000 0.53263  0.39858  0.70938  Biso   1.000  H 
  H504     1.0000 0.57033  0.41121  0.65868  Biso   1.000  H 
  B561     1.0000 0.50000  0.07190  0.36740  Biso   1.000  B 
  B562     1.0000 0.50000  0.11720  0.38280  Biso   1.000  B 
  B563     1.0000 0.50000  0.13260  0.42810  Biso   1.000  B 
  B564     1.0000 0.50000  0.15650  0.34350  Biso   1.000  B 
  B565     1.0000 0.50000  0.14470  0.29420  Biso   1.000  B 
  B566     1.0000 0.50000  0.20580  0.35530  Biso   1.000  B 
  B567     1.0000 0.50000  0.17950  0.25800  Biso   1.000  B 
  B568     1.0000 0.50000  0.11140  0.28510  Biso   1.000  B 
  B569     1.0000 0.50000  0.24200  0.32050  Biso   1.000  B 
  B570     1.0000 0.50000  0.21490  0.38860  Biso   1.000  B 
  B571     1.0000 0.50000  0.23070  0.26930  Biso   1.000  B 
  B572     1.0000 0.50000  0.26930  0.23070  Biso   1.000  B 
  B573     1.0000 0.50000  0.16950  0.22490  Biso   1.000  B 
  B574     1.0000 0.50000  0.25800  0.17950  Biso   1.000  B 
  N43      1.0000 0.46765  0.28647  0.33320  Biso   1.000  N 
  B575     1.0000 0.50000  0.32050  0.24200  Biso   1.000  B 
  B576     1.0000 0.50000  0.29420  0.14470  Biso   1.000  B 
  N44      1.0000 0.51142  0.20695  0.15753  Biso   1.000  N 
  B577     1.0000 0.50000  0.35530  0.20580  Biso   1.000  B 
  B578     1.0000 0.50000  0.33050  0.27510  Biso   1.000  B 
  B579     1.0000 0.50000  0.34350  0.15650  Biso   1.000  B 
  B580     1.0000 0.50000  0.38280  0.11720  Biso   1.000  B 
  B581     1.0000 0.50000  0.28510  0.11140  Biso   1.000  B 
  B582     1.0000 0.50000  0.38860  0.21490  Biso   1.000  B 
  B583     1.0000 0.50000  0.36740  0.07190  Biso   1.000  B 
  B584     1.0000 0.50000  0.42810  0.13260  Biso   1.000  B 
  C211     1.0000 0.56433  0.20101  0.14115  Biso   1.000  C 
  C212     1.0000 0.41392  0.27262  0.32811  Biso   1.000  C 
  C213     1.0000 0.57999  0.21550  0.08781  Biso   1.000  C 
  C214     1.0000 0.37943  0.31934  0.32250  Biso   1.000  C 
  H505     1.0000 0.47940  0.30828  0.36302  Biso   1.000  H 
  H506     1.0000 0.48335  0.19697  0.13178  Biso   1.000  H 
  C215     1.0000 0.37778  0.34291  0.27058  Biso   1.000  C 
  H507     1.0000 0.40551  0.24925  0.29499  Biso   1.000  H 
  H508     1.0000 0.57169  0.16151  0.14202  Biso   1.000  H 
  H509     1.0000 0.40732  0.32469  0.24711  Biso   1.000  H 
  C216     1.0000 0.38735  0.39850  0.27027  Biso   1.000  C 
  H510     1.0000 0.34129  0.33704  0.25409  Biso   1.000  H 
  C217     1.0000 0.55733  0.18445  0.04481  Biso   1.000  C 
  H511     1.0000 0.51791  0.17399  0.05728  Biso   1.000  H 
  C218     1.0000 0.58517  0.13475  0.03415  Biso   1.000  C 
  H512     1.0000 0.55429  0.20563  0.00998  Biso   1.000  H 
  H513     1.0000 0.58832  0.22110  0.16759  Biso   1.000  H 
  H514     1.0000 0.40308  0.25099  0.36147  Biso   1.000  H 
  H515     1.0000 0.62181  0.20957  0.08667  Biso   1.000  H 
  H516     1.0000 0.57489  0.25718  0.08432  Biso   1.000  H 
  H517     1.0000 0.38691  0.34706  0.35198  Biso   1.000  H 
  H518     1.0000 0.34135  0.30580  0.32991  Biso   1.000  H 
  H519     1.0000 0.35273  0.41553  0.28565  Biso   1.000  H 
  H520     1.0000 0.39110  0.40880  0.23087  Biso   1.000  H 
  C219     1.0000 0.43296  0.41694  0.30152  Biso   1.000  C 
  H521     1.0000 0.57977  0.11461  0.06889  Biso   1.000  H 
  H522     1.0000 0.62543  0.14092  0.02873  Biso   1.000  H 
  C220     1.0000 0.56495  0.10160  0.99257  Biso   1.000  C 
  H523     1.0000 0.53547  0.11901  0.96529  Biso   1.000  H 
  H524     1.0000 0.54471  0.06820  0.00916  Biso   1.000  H 
  H525     1.0000 0.59606  0.08630  0.97170  Biso   1.000  H 
  H526     1.0000 0.43682  0.45692  0.29215  Biso   1.000  H 
  H527     1.0000 0.46740  0.39861  0.29062  Biso   1.000  H 
  H528     1.0000 0.42969  0.41121  0.34133  Biso   1.000  H 
  B585     1.0000 0.50000  0.92810  0.36740  Biso   1.000  B 
  B586     1.0000 0.50000  0.88280  0.38280  Biso   1.000  B 
  B587     1.0000 0.50000  0.86740  0.42810  Biso   1.000  B 
  B588     1.0000 0.50000  0.84350  0.34350  Biso   1.000  B 
  B589     1.0000 0.50000  0.85530  0.29420  Biso   1.000  B 
  B590     1.0000 0.50000  0.79420  0.35530  Biso   1.000  B 
  B591     1.0000 0.50000  0.82050  0.25800  Biso   1.000  B 
  B592     1.0000 0.50000  0.88860  0.28510  Biso   1.000  B 
  B593     1.0000 0.50000  0.75800  0.32050  Biso   1.000  B 
  B594     1.0000 0.50000  0.78510  0.38860  Biso   1.000  B 
  B595     1.0000 0.50000  0.76930  0.26930  Biso   1.000  B 
  B596     1.0000 0.50000  0.73070  0.23070  Biso   1.000  B 
  B597     1.0000 0.50000  0.83050  0.22490  Biso   1.000  B 
  B598     1.0000 0.50000  0.74200  0.17950  Biso   1.000  B 
  N45      1.0000 0.53236  0.71353  0.33319  Biso   1.000  N 
  B599     1.0000 0.50000  0.67950  0.24200  Biso   1.000  B 
  B600     1.0000 0.50000  0.70580  0.14470  Biso   1.000  B 
  N46      1.0000 0.48859  0.79305  0.15752  Biso   1.000  N 
  B601     1.0000 0.50000  0.64470  0.20580  Biso   1.000  B 
  B602     1.0000 0.50000  0.66950  0.27510  Biso   1.000  B 
  B603     1.0000 0.50000  0.65650  0.15650  Biso   1.000  B 
  B604     1.0000 0.50000  0.61720  0.11720  Biso   1.000  B 
  B605     1.0000 0.50000  0.71490  0.11140  Biso   1.000  B 
  B606     1.0000 0.50000  0.61140  0.21490  Biso   1.000  B 
  B607     1.0000 0.50000  0.63260  0.07190  Biso   1.000  B 
  B608     1.0000 0.50000  0.57190  0.13260  Biso   1.000  B 
  C221     1.0000 0.43568  0.79898  0.14113  Biso   1.000  C 
  C222     1.0000 0.58608  0.72738  0.32810  Biso   1.000  C 
  C223     1.0000 0.42004  0.78447  0.08778  Biso   1.000  C 
  C224     1.0000 0.62056  0.68065  0.32250  Biso   1.000  C 
  H529     1.0000 0.52061  0.69173  0.36303  Biso   1.000  H 
  H530     1.0000 0.51666  0.80303  0.13178  Biso   1.000  H 
  C225     1.0000 0.62222  0.65707  0.27059  Biso   1.000  C 
  H531     1.0000 0.59450  0.75073  0.29498  Biso   1.000  H 
  H532     1.0000 0.42831  0.83849  0.14198  Biso   1.000  H 
  H533     1.0000 0.59269  0.67528  0.24711  Biso   1.000  H 
  C226     1.0000 0.61266  0.60149  0.27029  Biso   1.000  C 
  H534     1.0000 0.65872  0.66293  0.25411  Biso   1.000  H 
  C227     1.0000 0.44266  0.81559  0.04480  Biso   1.000  C 
  H535     1.0000 0.48208  0.82609  0.05726  Biso   1.000  H 
  C228     1.0000 0.41479  0.86526  0.03419  Biso   1.000  C 
  H536     1.0000 0.44572  0.79444  0.00995  Biso   1.000  H 
  H537     1.0000 0.41168  0.77890  0.16756  Biso   1.000  H 
  H538     1.0000 0.59692  0.74901  0.36146  Biso   1.000  H 
  H539     1.0000 0.37821  0.79034  0.08664  Biso   1.000  H 
  H540     1.0000 0.42521  0.74281  0.08427  Biso   1.000  H 
  H541     1.0000 0.61309  0.65293  0.35199  Biso   1.000  H 
  H542     1.0000 0.65864  0.69419  0.32990  Biso   1.000  H 
  H543     1.0000 0.64727  0.58447  0.28570  Biso   1.000  H 
  H544     1.0000 0.60895  0.59116  0.23090  Biso   1.000  H 
  C229     1.0000 0.56704  0.58305  0.30153  Biso   1.000  C 
  H545     1.0000 0.42018  0.88535  0.06893  Biso   1.000  H 
  H546     1.0000 0.37454  0.85908  0.02875  Biso   1.000  H 
  C230     1.0000 0.43502  0.89847  0.99264  Biso   1.000  C 
  H547     1.0000 0.46471  0.88114  0.96552  Biso   1.000  H 
  H548     1.0000 0.45500  0.93199  0.00919  Biso   1.000  H 
  H549     1.0000 0.40390  0.91358  0.97159  Biso   1.000  H 
  H550     1.0000 0.56318  0.54307  0.29216  Biso   1.000  H 
  H551     1.0000 0.53261  0.60139  0.29061  Biso   1.000  H 
  H552     1.0000 0.57030  0.58879  0.34134  Biso   1.000  H 
  B609     1.0000 0.50000  0.92810  0.63260  Biso   1.000  B 
  B610     1.0000 0.50000  0.88280  0.61720  Biso   1.000  B 
  B611     1.0000 0.50000  0.86740  0.57190  Biso   1.000  B 
  B612     1.0000 0.50000  0.84350  0.65650  Biso   1.000  B 
  B613     1.0000 0.50000  0.85530  0.70580  Biso   1.000  B 
  B614     1.0000 0.50000  0.79420  0.64470  Biso   1.000  B 
  B615     1.0000 0.50000  0.82050  0.74200  Biso   1.000  B 
  B616     1.0000 0.50000  0.88860  0.71490  Biso   1.000  B 
  B617     1.0000 0.50000  0.75800  0.67950  Biso   1.000  B 
  B618     1.0000 0.50000  0.78510  0.61140  Biso   1.000  B 
  B619     1.0000 0.50000  0.76930  0.73070  Biso   1.000  B 
  B620     1.0000 0.50000  0.73070  0.76930  Biso   1.000  B 
  B621     1.0000 0.50000  0.83050  0.77510  Biso   1.000  B 
  B622     1.0000 0.50000  0.74200  0.82050  Biso   1.000  B 
  N47      1.0000 0.46764  0.71353  0.66681  Biso   1.000  N 
  B623     1.0000 0.50000  0.67950  0.75800  Biso   1.000  B 
  B624     1.0000 0.50000  0.70580  0.85530  Biso   1.000  B 
  N48      1.0000 0.51140  0.79305  0.84248  Biso   1.000  N 
  B625     1.0000 0.50000  0.64470  0.79420  Biso   1.000  B 
  B626     1.0000 0.50000  0.66950  0.72490  Biso   1.000  B 
  B627     1.0000 0.50000  0.65650  0.84350  Biso   1.000  B 
  B628     1.0000 0.50000  0.61720  0.88280  Biso   1.000  B 
  B629     1.0000 0.50000  0.71490  0.88860  Biso   1.000  B 
  B630     1.0000 0.50000  0.61140  0.78510  Biso   1.000  B 
  B631     1.0000 0.50000  0.63260  0.92810  Biso   1.000  B 
  B632     1.0000 0.50000  0.57190  0.86740  Biso   1.000  B 
  C231     1.0000 0.56431  0.79898  0.85885  Biso   1.000  C 
  C232     1.0000 0.41391  0.72738  0.67191  Biso   1.000  C 
  C233     1.0000 0.57997  0.78448  0.91219  Biso   1.000  C 
  C234     1.0000 0.37943  0.68066  0.67751  Biso   1.000  C 
  H553     1.0000 0.47938  0.69176  0.63695  Biso   1.000  H 
  H554     1.0000 0.48334  0.80303  0.86823  Biso   1.000  H 
  C235     1.0000 0.37777  0.65708  0.72943  Biso   1.000  C 
  H555     1.0000 0.40551  0.75073  0.70503  Biso   1.000  H 
  H556     1.0000 0.57168  0.83849  0.85800  Biso   1.000  H 
  H557     1.0000 0.40731  0.67528  0.75290  Biso   1.000  H 
  C236     1.0000 0.38732  0.60150  0.72972  Biso   1.000  C 
  H558     1.0000 0.34128  0.66294  0.74591  Biso   1.000  H 
  C237     1.0000 0.55734  0.81559  0.95518  Biso   1.000  C 
  H559     1.0000 0.51793  0.82610  0.94271  Biso   1.000  H 
  C238     1.0000 0.58522  0.86524  0.96584  Biso   1.000  C 
  H560     1.0000 0.55427  0.79442  0.99001  Biso   1.000  H 
  H561     1.0000 0.58831  0.77890  0.83241  Biso   1.000  H 
  H562     1.0000 0.40308  0.74901  0.63854  Biso   1.000  H 
  H563     1.0000 0.62180  0.79038  0.91332  Biso   1.000  H 
  H564     1.0000 0.57482  0.74282  0.91570  Biso   1.000  H 
  H565     1.0000 0.38689  0.65294  0.64802  Biso   1.000  H 
  H566     1.0000 0.34135  0.69421  0.67012  Biso   1.000  H 
  H567     1.0000 0.35271  0.58448  0.71430  Biso   1.000  H 
  H568     1.0000 0.39103  0.59117  0.76911  Biso   1.000  H 
  C239     1.0000 0.43295  0.58307  0.69849  Biso   1.000  C 
  H569     1.0000 0.57986  0.88539  0.93111  Biso   1.000  H 
  H570     1.0000 0.62546  0.85903  0.97128  Biso   1.000  H 
  C240     1.0000 0.56499  0.89842  0.00741  Biso   1.000  C 
  H571     1.0000 0.53547  0.88101  0.03468  Biso   1.000  H 
  H572     1.0000 0.54479  0.93183  0.99085  Biso   1.000  H 
  H573     1.0000 0.59613  0.91371  0.02832  Biso   1.000  H 
  H574     1.0000 0.43682  0.54310  0.70788  Biso   1.000  H 
  H575     1.0000 0.46737  0.60142  0.70938  Biso   1.000  H 
  H576     1.0000 0.42967  0.58878  0.65868  Biso   1.000  H 
