data_image0
_cell_length_a       20.7004
_cell_length_b       20.7004
_cell_length_c       20.7004
_cell_angle_alpha    90
_cell_angle_beta     90
_cell_angle_gamma    90

_symmetry_space_group_name_H-M    "P 1"
_symmetry_int_tables_number       1

loop_
  _symmetry_equiv_pos_as_xyz
  'x, y, z'

loop_
  _atom_site_label
  _atom_site_occupancy
  _atom_site_fract_x
  _atom_site_fract_y
  _atom_site_fract_z
  _atom_site_thermal_displace_type
  _atom_site_B_iso_or_equiv
  _atom_site_type_symbol
  B1       1.0000 0.11989  0.00000  0.00000  Biso   1.000  B 
  B2       1.0000 0.11989  0.50000  0.50000  Biso   1.000  B 
  B3       1.0000 0.61989  0.00000  0.50000  Biso   1.000  B 
  B4       1.0000 0.61989  0.50000  0.00000  Biso   1.000  B 
  B5       1.0000 0.88011  0.00000  0.00000  Biso   1.000  B 
  B6       1.0000 0.88011  0.50000  0.50000  Biso   1.000  B 
  B7       1.0000 0.38011  0.00000  0.50000  Biso   1.000  B 
  B8       1.0000 0.38011  0.50000  0.00000  Biso   1.000  B 
  B9       1.0000 0.00000  0.11989  0.00000  Biso   1.000  B 
  B10      1.0000 0.00000  0.61989  0.50000  Biso   1.000  B 
  B11      1.0000 0.50000  0.11989  0.50000  Biso   1.000  B 
  B12      1.0000 0.50000  0.61989  0.00000  Biso   1.000  B 
  B13      1.0000 0.00000  0.88011  0.00000  Biso   1.000  B 
  B14      1.0000 0.00000  0.38011  0.50000  Biso   1.000  B 
  B15      1.0000 0.50000  0.88011  0.50000  Biso   1.000  B 
  B16      1.0000 0.50000  0.38011  0.00000  Biso   1.000  B 
  B17      1.0000 0.00000  0.00000  0.11989  Biso   1.000  B 
  B18      1.0000 0.00000  0.50000  0.61989  Biso   1.000  B 
  B19      1.0000 0.50000  0.00000  0.61989  Biso   1.000  B 
  B20      1.0000 0.50000  0.50000  0.11989  Biso   1.000  B 
  B21      1.0000 0.00000  0.00000  0.88011  Biso   1.000  B 
  B22      1.0000 0.00000  0.50000  0.38011  Biso   1.000  B 
  B23      1.0000 0.50000  0.00000  0.38011  Biso   1.000  B 
  B24      1.0000 0.50000  0.50000  0.88011  Biso   1.000  B 
  B25      1.0000 0.05610  0.44390  0.44390  Biso   1.000  B 
  B26      1.0000 0.55610  0.94390  0.44390  Biso   1.000  B 
  B27      1.0000 0.55610  0.44390  0.94390  Biso   1.000  B 
  B28      1.0000 0.44390  0.05610  0.44390  Biso   1.000  B 
  B29      1.0000 0.44390  0.55610  0.94390  Biso   1.000  B 
  B30      1.0000 0.94390  0.94390  0.05610  Biso   1.000  B 
  B31      1.0000 0.94390  0.44390  0.55610  Biso   1.000  B 
  B32      1.0000 0.05610  0.05610  0.05610  Biso   1.000  B 
  B33      1.0000 0.55610  0.55610  0.05610  Biso   1.000  B 
  B34      1.0000 0.94390  0.05610  0.05610  Biso   1.000  B 
  B35      1.0000 0.94390  0.55610  0.55610  Biso   1.000  B 
  B36      1.0000 0.44390  0.05610  0.55610  Biso   1.000  B 
  B37      1.0000 0.44390  0.55610  0.05610  Biso   1.000  B 
  B38      1.0000 0.05610  0.94390  0.05610  Biso   1.000  B 
  B39      1.0000 0.05610  0.44390  0.55610  Biso   1.000  B 
  B40      1.0000 0.55610  0.94390  0.55610  Biso   1.000  B 
  B41      1.0000 0.55610  0.44390  0.05610  Biso   1.000  B 
  B42      1.0000 0.94390  0.94390  0.94390  Biso   1.000  B 
  B43      1.0000 0.94390  0.44390  0.44390  Biso   1.000  B 
  B44      1.0000 0.44390  0.94390  0.44390  Biso   1.000  B 
  B45      1.0000 0.44390  0.44390  0.94390  Biso   1.000  B 
  B46      1.0000 0.05610  0.05610  0.94390  Biso   1.000  B 
  B47      1.0000 0.05610  0.55610  0.44390  Biso   1.000  B 
  B48      1.0000 0.55610  0.05610  0.44390  Biso   1.000  B 
  B49      1.0000 0.15360  0.00000  0.84640  Biso   1.000  B 
  B50      1.0000 0.17046  0.00000  0.90471  Biso   1.000  B 
  B51      1.0000 0.09529  0.00000  0.82954  Biso   1.000  B 
  B52      1.0000 0.20500  0.00000  0.79500  Biso   1.000  B 
  B53      1.0000 0.18437  0.00000  0.73249  Biso   1.000  B 
  B54      1.0000 0.13046  0.00000  0.72128  Biso   1.000  B 
  N1       1.0000 0.21352  0.99374  0.61927  Biso   1.000  N 
  B55      1.0000 0.23249  0.00000  0.68442  Biso   1.000  B 
  B56      1.0000 0.29500  0.00000  0.70500  Biso   1.000  B 
  B57      1.0000 0.31558  0.00000  0.76751  Biso   1.000  B 
  B58      1.0000 0.26751  0.00000  0.81563  Biso   1.000  B 
  N2       1.0000 0.27878  0.99219  0.87944  Biso   1.000  N 
  B59      1.0000 0.36949  0.00000  0.77872  Biso   1.000  B 
  B60      1.0000 0.40470  0.00000  0.67046  Biso   1.000  B 
  B61      1.0000 0.34640  0.00000  0.65360  Biso   1.000  B 
  B62      1.0000 0.32954  0.00000  0.59529  Biso   1.000  B 
  C1       1.0000 0.18313  0.93361  0.60567  Biso   1.000  C 
  C2       1.0000 0.18271  0.04955  0.59982  Biso   1.000  C 
  H1       1.0000 0.21773  0.08827  0.58908  Biso   1.000  H 
  H2       1.0000 0.14765  0.06833  0.63389  Biso   1.000  H 
  C3       1.0000 0.14556  0.02187  0.54800  Biso   1.000  C 
  C4       1.0000 0.13515  0.95224  0.56019  Biso   1.000  C 
  H3       1.0000 0.18354  0.02409  0.51336  Biso   1.000  H 
  H4       1.0000 0.10387  0.04396  0.52894  Biso   1.000  H 
  H5       1.0000 0.15791  0.91411  0.64936  Biso   1.000  H 
  H6       1.0000 0.21891  0.89698  0.59523  Biso   1.000  H 
  H7       1.0000 0.14336  0.92313  0.52263  Biso   1.000  H 
  H8       1.0000 0.08486  0.94493  0.57531  Biso   1.000  H 
  C5       1.0000 0.28893  0.92875  0.89294  Biso   1.000  C 
  C6       1.0000 0.31364  0.04029  0.90653  Biso   1.000  C 
  H9       1.0000 0.32514  0.07888  0.86898  Biso   1.000  H 
  C7       1.0000 0.37053  0.00389  0.92798  Biso   1.000  C 
  H10      1.0000 0.27977  0.06098  0.93823  Biso   1.000  H 
  H11      1.0000 0.39983  0.03161  0.89667  Biso   1.000  H 
  C8       1.0000 0.34115  0.93635  0.93313  Biso   1.000  C 
  H12      1.0000 0.40122  0.00134  0.96765  Biso   1.000  H 
  H13      1.0000 0.29253  0.89822  0.84621  Biso   1.000  H 
  H14      1.0000 0.24301  0.91063  0.91392  Biso   1.000  H 
  H15      1.0000 0.33755  0.93464  0.97766  Biso   1.000  H 
  H16      1.0000 0.34212  0.88932  0.92341  Biso   1.000  H 
  B63      1.0000 0.15360  0.50000  0.34640  Biso   1.000  B 
  B64      1.0000 0.17046  0.50000  0.40471  Biso   1.000  B 
  B65      1.0000 0.09529  0.50000  0.32954  Biso   1.000  B 
  B66      1.0000 0.20500  0.50000  0.29500  Biso   1.000  B 
  B67      1.0000 0.18437  0.50000  0.23249  Biso   1.000  B 
  B68      1.0000 0.13046  0.50000  0.22128  Biso   1.000  B 
  N3       1.0000 0.21349  0.49361  0.11926  Biso   1.000  N 
  B69      1.0000 0.23249  0.50000  0.18442  Biso   1.000  B 
  B70      1.0000 0.29500  0.50000  0.20500  Biso   1.000  B 
  B71      1.0000 0.31558  0.50000  0.26751  Biso   1.000  B 
  B72      1.0000 0.26751  0.50000  0.31563  Biso   1.000  B 
  N4       1.0000 0.27878  0.49221  0.37948  Biso   1.000  N 
  B73      1.0000 0.36949  0.50000  0.27872  Biso   1.000  B 
  B74      1.0000 0.40470  0.50000  0.17046  Biso   1.000  B 
  B75      1.0000 0.34640  0.50000  0.15360  Biso   1.000  B 
  B76      1.0000 0.32954  0.50000  0.09529  Biso   1.000  B 
  C9       1.0000 0.18313  0.43349  0.10566  Biso   1.000  C 
  C10      1.0000 0.18252  0.54936  0.09989  Biso   1.000  C 
  H17      1.0000 0.21746  0.58808  0.08889  Biso   1.000  H 
  H18      1.0000 0.14762  0.56817  0.13402  Biso   1.000  H 
  C11      1.0000 0.14539  0.52169  0.04797  Biso   1.000  C 
  C12      1.0000 0.13508  0.45201  0.06031  Biso   1.000  C 
  H19      1.0000 0.18320  0.52388  0.01328  Biso   1.000  H 
  H20      1.0000 0.10369  0.54370  0.02890  Biso   1.000  H 
  H21      1.0000 0.15791  0.41393  0.14948  Biso   1.000  H 
  H22      1.0000 0.21881  0.39680  0.09512  Biso   1.000  H 
  H23      1.0000 0.14332  0.42309  0.02261  Biso   1.000  H 
  H24      1.0000 0.08491  0.44480  0.07544  Biso   1.000  H 
  C13      1.0000 0.28903  0.42874  0.39299  Biso   1.000  C 
  C14      1.0000 0.31378  0.54034  0.40636  Biso   1.000  C 
  H25      1.0000 0.32537  0.57886  0.36853  Biso   1.000  H 
  C15      1.0000 0.37064  0.50393  0.42800  Biso   1.000  C 
  H26      1.0000 0.27973  0.56131  0.43795  Biso   1.000  H 
  H27      1.0000 0.39980  0.53142  0.39688  Biso   1.000  H 
  C16      1.0000 0.34114  0.43649  0.43314  Biso   1.000  C 
  H28      1.0000 0.40119  0.50140  0.46768  Biso   1.000  H 
  H29      1.0000 0.29266  0.39829  0.34617  Biso   1.000  H 
  H30      1.0000 0.24292  0.41076  0.41394  Biso   1.000  H 
  H31      1.0000 0.33768  0.43495  0.47778  Biso   1.000  H 
  H32      1.0000 0.34221  0.38937  0.42383  Biso   1.000  H 
  B77      1.0000 0.65360  0.00000  0.34640  Biso   1.000  B 
  B78      1.0000 0.67046  0.00000  0.40471  Biso   1.000  B 
  B79      1.0000 0.59529  0.00000  0.32954  Biso   1.000  B 
  B80      1.0000 0.70500  0.00000  0.29500  Biso   1.000  B 
  B81      1.0000 0.68437  0.00000  0.23249  Biso   1.000  B 
  B82      1.0000 0.63046  0.00000  0.22128  Biso   1.000  B 
  N5       1.0000 0.71351  0.99361  0.11923  Biso   1.000  N 
  B83      1.0000 0.73248  0.00000  0.18442  Biso   1.000  B 
  B84      1.0000 0.79499  0.00000  0.20500  Biso   1.000  B 
  B85      1.0000 0.81558  0.00000  0.26751  Biso   1.000  B 
  B86      1.0000 0.76751  0.00000  0.31563  Biso   1.000  B 
  N6       1.0000 0.77875  0.99221  0.37942  Biso   1.000  N 
  B87      1.0000 0.86949  0.00000  0.27872  Biso   1.000  B 
  B88      1.0000 0.90470  0.00000  0.17046  Biso   1.000  B 
  B89      1.0000 0.84639  0.00000  0.15360  Biso   1.000  B 
  B90      1.0000 0.82953  0.00000  0.09529  Biso   1.000  B 
  C17      1.0000 0.68313  0.93347  0.10570  Biso   1.000  C 
  C18      1.0000 0.68265  0.04931  0.09964  Biso   1.000  C 
  H33      1.0000 0.71786  0.08791  0.08866  Biso   1.000  H 
  H34      1.0000 0.64776  0.06818  0.13385  Biso   1.000  H 
  C19      1.0000 0.64551  0.02165  0.04792  Biso   1.000  C 
  C20      1.0000 0.63502  0.95207  0.06015  Biso   1.000  C 
  H35      1.0000 0.68363  0.02354  0.01328  Biso   1.000  H 
  H36      1.0000 0.60383  0.04338  0.02864  Biso   1.000  H 
  H37      1.0000 0.65796  0.91383  0.14946  Biso   1.000  H 
  H38      1.0000 0.71893  0.89701  0.09497  Biso   1.000  H 
  H39      1.0000 0.64343  0.92301  0.02267  Biso   1.000  H 
  H40      1.0000 0.58484  0.94495  0.07530  Biso   1.000  H 
  C21      1.0000 0.78897  0.92877  0.39292  Biso   1.000  C 
  C22      1.0000 0.81358  0.04032  0.40641  Biso   1.000  C 
  H41      1.0000 0.82527  0.07895  0.36888  Biso   1.000  H 
  C23      1.0000 0.87055  0.00409  0.42796  Biso   1.000  C 
  H42      1.0000 0.77983  0.06111  0.43808  Biso   1.000  H 
  H43      1.0000 0.89982  0.03193  0.39695  Biso   1.000  H 
  C24      1.0000 0.84118  0.93643  0.43301  Biso   1.000  C 
  H44      1.0000 0.90126  0.00146  0.46763  Biso   1.000  H 
  H45      1.0000 0.79258  0.89844  0.34595  Biso   1.000  H 
  H46      1.0000 0.74289  0.91042  0.41383  Biso   1.000  H 
  H47      1.0000 0.83753  0.93480  0.47762  Biso   1.000  H 
  H48      1.0000 0.84215  0.88938  0.42339  Biso   1.000  H 
  B91      1.0000 0.65360  0.50000  0.84640  Biso   1.000  B 
  B92      1.0000 0.67046  0.50000  0.90471  Biso   1.000  B 
  B93      1.0000 0.59529  0.50000  0.82954  Biso   1.000  B 
  B94      1.0000 0.70500  0.50000  0.79500  Biso   1.000  B 
  B95      1.0000 0.68437  0.50000  0.73249  Biso   1.000  B 
  B96      1.0000 0.63046  0.50000  0.72128  Biso   1.000  B 
  N7       1.0000 0.71354  0.49359  0.61922  Biso   1.000  N 
  B97      1.0000 0.73248  0.50000  0.68442  Biso   1.000  B 
  B98      1.0000 0.79499  0.50000  0.70500  Biso   1.000  B 
  B99      1.0000 0.81558  0.50000  0.76751  Biso   1.000  B 
  B100     1.0000 0.76751  0.50000  0.81563  Biso   1.000  B 
  N8       1.0000 0.77878  0.49212  0.87939  Biso   1.000  N 
  B101     1.0000 0.86949  0.50000  0.77872  Biso   1.000  B 
  B102     1.0000 0.90470  0.50000  0.67046  Biso   1.000  B 
  B103     1.0000 0.84639  0.50000  0.65360  Biso   1.000  B 
  B104     1.0000 0.82953  0.50000  0.59529  Biso   1.000  B 
  C25      1.0000 0.68324  0.43337  0.60573  Biso   1.000  C 
  C26      1.0000 0.68260  0.54922  0.59966  Biso   1.000  C 
  H49      1.0000 0.71765  0.58801  0.58880  Biso   1.000  H 
  H50      1.0000 0.64748  0.56797  0.63359  Biso   1.000  H 
  C27      1.0000 0.64553  0.52151  0.54789  Biso   1.000  C 
  C28      1.0000 0.63507  0.45196  0.56028  Biso   1.000  C 
  H51      1.0000 0.68388  0.52350  0.51328  Biso   1.000  H 
  H52      1.0000 0.60396  0.54344  0.52848  Biso   1.000  H 
  H53      1.0000 0.65823  0.41358  0.64957  Biso   1.000  H 
  H54      1.0000 0.71921  0.39696  0.59498  Biso   1.000  H 
  H55      1.0000 0.64316  0.42293  0.52285  Biso   1.000  H 
  H56      1.0000 0.58499  0.44487  0.57561  Biso   1.000  H 
  C29      1.0000 0.78902  0.42872  0.89287  Biso   1.000  C 
  C30      1.0000 0.81356  0.54032  0.90647  Biso   1.000  C 
  H57      1.0000 0.82519  0.57893  0.86882  Biso   1.000  H 
  C31      1.0000 0.87056  0.50407  0.92796  Biso   1.000  C 
  H58      1.0000 0.77984  0.56108  0.93816  Biso   1.000  H 
  H59      1.0000 0.89971  0.53192  0.89678  Biso   1.000  H 
  C32      1.0000 0.84116  0.43649  0.93305  Biso   1.000  C 
  H60      1.0000 0.90120  0.50156  0.96757  Biso   1.000  H 
  H61      1.0000 0.79258  0.39842  0.84594  Biso   1.000  H 
  H62      1.0000 0.74287  0.41051  0.91383  Biso   1.000  H 
  H63      1.0000 0.83766  0.43481  0.97770  Biso   1.000  H 
  H64      1.0000 0.84204  0.38934  0.92356  Biso   1.000  H 
  B105     1.0000 0.84640  0.00000  0.84640  Biso   1.000  B 
  B106     1.0000 0.82954  0.00000  0.90471  Biso   1.000  B 
  B107     1.0000 0.90471  0.00000  0.82954  Biso   1.000  B 
  B108     1.0000 0.79500  0.00000  0.79500  Biso   1.000  B 
  B109     1.0000 0.81563  0.00000  0.73249  Biso   1.000  B 
  B110     1.0000 0.86954  0.00000  0.72128  Biso   1.000  B 
  N9       1.0000 0.78659  0.99950  0.62439  Biso   1.000  N 
  B111     1.0000 0.76752  0.00000  0.68442  Biso   1.000  B 
  B112     1.0000 0.70501  0.00000  0.70500  Biso   1.000  B 
  B113     1.0000 0.68442  0.00000  0.76751  Biso   1.000  B 
  B114     1.0000 0.73249  0.00000  0.81563  Biso   1.000  B 
  N10      1.0000 0.71795  0.99985  0.88202  Biso   1.000  N 
  B115     1.0000 0.63051  0.00000  0.77872  Biso   1.000  B 
  B116     1.0000 0.59530  0.00000  0.67046  Biso   1.000  B 
  B117     1.0000 0.65361  0.00000  0.65360  Biso   1.000  B 
  B118     1.0000 0.67047  0.00000  0.59529  Biso   1.000  B 
  C33      1.0000 0.80212  0.05825  0.60431  Biso   1.000  C 
  C34      1.0000 0.77439  0.94602  0.58495  Biso   1.000  C 
  H65      1.0000 0.73247  0.91672  0.59836  Biso   1.000  H 
  H66      1.0000 0.81621  0.91296  0.58182  Biso   1.000  H 
  C35      1.0000 0.76768  0.98906  0.53247  Biso   1.000  C 
  C36      1.0000 0.82540  0.02812  0.55069  Biso   1.000  C 
  H67      1.0000 0.73277  0.02649  0.52531  Biso   1.000  H 
  H68      1.0000 0.75443  0.96256  0.49569  Biso   1.000  H 
  H69      1.0000 0.83786  0.07845  0.63557  Biso   1.000  H 
  H70      1.0000 0.75976  0.08974  0.60168  Biso   1.000  H 
  H71      1.0000 0.83371  0.06018  0.52201  Biso   1.000  H 
  H72      1.0000 0.87392  0.00251  0.55895  Biso   1.000  H 
  C37      1.0000 0.66291  0.03248  0.89891  Biso   1.000  C 
  C38      1.0000 0.72838  0.94146  0.91627  Biso   1.000  C 
  H73      1.0000 0.76647  0.90678  0.89738  Biso   1.000  H 
  C39      1.0000 0.66786  0.91258  0.90411  Biso   1.000  C 
  H74      1.0000 0.73965  0.95674  0.96678  Biso   1.000  H 
  H75      1.0000 0.67481  0.89104  0.85809  Biso   1.000  H 
  C40      1.0000 0.62634  0.97135  0.91364  Biso   1.000  C 
  H76      1.0000 0.65377  0.87789  0.93631  Biso   1.000  H 
  H77      1.0000 0.64667  0.06381  0.86297  Biso   1.000  H 
  H78      1.0000 0.67704  0.06835  0.93383  Biso   1.000  H 
  H79      1.0000 0.58805  0.97447  0.94884  Biso   1.000  H 
  H80      1.0000 0.60872  0.96021  0.87335  Biso   1.000  H 
  B119     1.0000 0.84640  0.50000  0.34640  Biso   1.000  B 
  B120     1.0000 0.82954  0.50000  0.40471  Biso   1.000  B 
  B121     1.0000 0.90471  0.50000  0.32954  Biso   1.000  B 
  B122     1.0000 0.79500  0.50000  0.29500  Biso   1.000  B 
  B123     1.0000 0.81563  0.50000  0.23249  Biso   1.000  B 
  B124     1.0000 0.86954  0.50000  0.22128  Biso   1.000  B 
  N11      1.0000 0.78658  0.49950  0.12444  Biso   1.000  N 
  B125     1.0000 0.76752  0.50000  0.18442  Biso   1.000  B 
  B126     1.0000 0.70501  0.50000  0.20500  Biso   1.000  B 
  B127     1.0000 0.68442  0.50000  0.26751  Biso   1.000  B 
  B128     1.0000 0.73249  0.50000  0.31563  Biso   1.000  B 
  N12      1.0000 0.71797  0.49976  0.38207  Biso   1.000  N 
  B129     1.0000 0.63051  0.50000  0.27872  Biso   1.000  B 
  B130     1.0000 0.59530  0.50000  0.17046  Biso   1.000  B 
  B131     1.0000 0.65361  0.50000  0.15360  Biso   1.000  B 
  B132     1.0000 0.67047  0.50000  0.09529  Biso   1.000  B 
  C41      1.0000 0.80211  0.55830  0.10439  Biso   1.000  C 
  C42      1.0000 0.77437  0.44599  0.08499  Biso   1.000  C 
  H81      1.0000 0.73248  0.41678  0.09839  Biso   1.000  H 
  H82      1.0000 0.81614  0.41300  0.08186  Biso   1.000  H 
  C43      1.0000 0.76769  0.48907  0.03246  Biso   1.000  C 
  C44      1.0000 0.82541  0.52815  0.05074  Biso   1.000  C 
  H83      1.0000 0.73284  0.52651  0.02531  Biso   1.000  H 
  H84      1.0000 0.75447  0.46244  0.99559  Biso   1.000  H 
  H85      1.0000 0.83771  0.57853  0.13569  Biso   1.000  H 
  H86      1.0000 0.75974  0.58981  0.10178  Biso   1.000  H 
  H87      1.0000 0.83401  0.56013  0.02196  Biso   1.000  H 
  H88      1.0000 0.87378  0.50237  0.05897  Biso   1.000  H 
  C45      1.0000 0.66301  0.53257  0.39895  Biso   1.000  C 
  C46      1.0000 0.72834  0.44136  0.41626  Biso   1.000  C 
  H89      1.0000 0.76645  0.40669  0.39742  Biso   1.000  H 
  C47      1.0000 0.66782  0.41265  0.40413  Biso   1.000  C 
  H90      1.0000 0.73968  0.45663  0.46675  Biso   1.000  H 
  H91      1.0000 0.67486  0.39109  0.35799  Biso   1.000  H 
  C48      1.0000 0.62643  0.47149  0.41362  Biso   1.000  C 
  H92      1.0000 0.65413  0.37797  0.43621  Biso   1.000  H 
  H93      1.0000 0.64680  0.56395  0.36292  Biso   1.000  H 
  H94      1.0000 0.67723  0.56839  0.43399  Biso   1.000  H 
  H95      1.0000 0.58827  0.47468  0.44900  Biso   1.000  H 
  H96      1.0000 0.60873  0.46034  0.37327  Biso   1.000  H 
  B133     1.0000 0.34640  0.00000  0.34640  Biso   1.000  B 
  B134     1.0000 0.32954  0.00000  0.40471  Biso   1.000  B 
  B135     1.0000 0.40471  0.00000  0.32954  Biso   1.000  B 
  B136     1.0000 0.29500  0.00000  0.29500  Biso   1.000  B 
  B137     1.0000 0.31563  0.00000  0.23249  Biso   1.000  B 
  B138     1.0000 0.36954  0.00000  0.22128  Biso   1.000  B 
  N13      1.0000 0.28656  0.99954  0.12443  Biso   1.000  N 
  B139     1.0000 0.26751  0.00000  0.18442  Biso   1.000  B 
  B140     1.0000 0.20500  0.00000  0.20500  Biso   1.000  B 
  B141     1.0000 0.18442  0.00000  0.26751  Biso   1.000  B 
  B142     1.0000 0.23249  0.00000  0.31563  Biso   1.000  B 
  N14      1.0000 0.21798  0.99983  0.38206  Biso   1.000  N 
  B143     1.0000 0.13051  0.00000  0.27872  Biso   1.000  B 
  B144     1.0000 0.09530  0.00000  0.17046  Biso   1.000  B 
  B145     1.0000 0.15360  0.00000  0.15360  Biso   1.000  B 
  B146     1.0000 0.17046  0.00000  0.09529  Biso   1.000  B 
  C49      1.0000 0.30208  0.05840  0.10441  Biso   1.000  C 
  C50      1.0000 0.27436  0.94604  0.08500  Biso   1.000  C 
  H97      1.0000 0.23261  0.91684  0.09858  Biso   1.000  H 
  H98      1.0000 0.31621  0.91309  0.08170  Biso   1.000  H 
  C51      1.0000 0.26779  0.98918  0.03241  Biso   1.000  C 
  C52      1.0000 0.32541  0.02821  0.05080  Biso   1.000  C 
  H99      1.0000 0.23281  0.02652  0.02534  Biso   1.000  H 
  H100     1.0000 0.25445  0.96276  0.99557  Biso   1.000  H 
  H101     1.0000 0.33772  0.07853  0.13584  Biso   1.000  H 
  H102     1.0000 0.25978  0.08996  0.10157  Biso   1.000  H 
  H103     1.0000 0.33407  0.06014  0.02188  Biso   1.000  H 
  H104     1.0000 0.37373  0.00242  0.05904  Biso   1.000  H 
  C53      1.0000 0.16297  0.03253  0.39885  Biso   1.000  C 
  C54      1.0000 0.22846  0.94155  0.41639  Biso   1.000  C 
  H105     1.0000 0.26650  0.90677  0.39760  Biso   1.000  H 
  C55      1.0000 0.16787  0.91261  0.40413  Biso   1.000  C 
  H106     1.0000 0.23958  0.95686  0.46697  Biso   1.000  H 
  H107     1.0000 0.17504  0.89104  0.35805  Biso   1.000  H 
  C56      1.0000 0.12640  0.97142  0.41363  Biso   1.000  C 
  H108     1.0000 0.15387  0.87786  0.43638  Biso   1.000  H 
  H109     1.0000 0.14692  0.06401  0.36269  Biso   1.000  H 
  H110     1.0000 0.17705  0.06840  0.43382  Biso   1.000  H 
  H111     1.0000 0.08837  0.97472  0.44921  Biso   1.000  H 
  H112     1.0000 0.10857  0.96016  0.37330  Biso   1.000  H 
  B147     1.0000 0.34640  0.50000  0.84640  Biso   1.000  B 
  B148     1.0000 0.32954  0.50000  0.90471  Biso   1.000  B 
  B149     1.0000 0.40471  0.50000  0.82954  Biso   1.000  B 
  B150     1.0000 0.29500  0.50000  0.79500  Biso   1.000  B 
  B151     1.0000 0.31563  0.50000  0.73249  Biso   1.000  B 
  B152     1.0000 0.36954  0.50000  0.72128  Biso   1.000  B 
  N15      1.0000 0.28657  0.49948  0.62442  Biso   1.000  N 
  B153     1.0000 0.26751  0.50000  0.68442  Biso   1.000  B 
  B154     1.0000 0.20500  0.50000  0.70500  Biso   1.000  B 
  B155     1.0000 0.18442  0.50000  0.76751  Biso   1.000  B 
  B156     1.0000 0.23249  0.50000  0.81563  Biso   1.000  B 
  N16      1.0000 0.21794  0.49994  0.88211  Biso   1.000  N 
  B157     1.0000 0.13051  0.50000  0.77872  Biso   1.000  B 
  B158     1.0000 0.09530  0.50000  0.67046  Biso   1.000  B 
  B159     1.0000 0.15360  0.50000  0.65360  Biso   1.000  B 
  B160     1.0000 0.17046  0.50000  0.59529  Biso   1.000  B 
  C57      1.0000 0.30219  0.55824  0.60432  Biso   1.000  C 
  C58      1.0000 0.27443  0.44596  0.58494  Biso   1.000  C 
  H113     1.0000 0.23253  0.41644  0.59863  Biso   1.000  H 
  H114     1.0000 0.31629  0.41314  0.58171  Biso   1.000  H 
  C59      1.0000 0.26763  0.48904  0.53256  Biso   1.000  C 
  C60      1.0000 0.32543  0.52811  0.55071  Biso   1.000  C 
  H115     1.0000 0.23278  0.52655  0.52534  Biso   1.000  H 
  H116     1.0000 0.25433  0.46266  0.49561  Biso   1.000  H 
  H117     1.0000 0.33801  0.57835  0.63568  Biso   1.000  H 
  H118     1.0000 0.26003  0.58980  0.60169  Biso   1.000  H 
  H119     1.0000 0.33397  0.56008  0.52196  Biso   1.000  H 
  H120     1.0000 0.37398  0.50257  0.55907  Biso   1.000  H 
  C61      1.0000 0.16291  0.53262  0.89895  Biso   1.000  C 
  C62      1.0000 0.22838  0.44166  0.91642  Biso   1.000  C 
  H121     1.0000 0.26656  0.40698  0.89756  Biso   1.000  H 
  C63      1.0000 0.16786  0.41268  0.90419  Biso   1.000  C 
  H122     1.0000 0.23964  0.45697  0.96699  Biso   1.000  H 
  H123     1.0000 0.17496  0.39111  0.85809  Biso   1.000  H 
  C64      1.0000 0.12625  0.47151  0.91370  Biso   1.000  C 
  H124     1.0000 0.15382  0.37796  0.93648  Biso   1.000  H 
  H125     1.0000 0.14670  0.56401  0.86281  Biso   1.000  H 
  H126     1.0000 0.17705  0.56843  0.93398  Biso   1.000  H 
  H127     1.0000 0.08803  0.47473  0.94901  Biso   1.000  H 
  H128     1.0000 0.10852  0.46030  0.87341  Biso   1.000  H 
  B161     1.0000 0.84640  0.15360  0.00000  Biso   1.000  B 
  B162     1.0000 0.90471  0.17046  0.00000  Biso   1.000  B 
  B163     1.0000 0.82954  0.09529  0.00000  Biso   1.000  B 
  B164     1.0000 0.79500  0.20500  0.00000  Biso   1.000  B 
  B165     1.0000 0.73249  0.18437  0.00000  Biso   1.000  B 
  B166     1.0000 0.72128  0.13046  0.00000  Biso   1.000  B 
  N17      1.0000 0.61927  0.21351  0.99358  Biso   1.000  N 
  B167     1.0000 0.68442  0.23249  0.00000  Biso   1.000  B 
  B168     1.0000 0.70500  0.29500  0.00000  Biso   1.000  B 
  B169     1.0000 0.76751  0.31558  0.00000  Biso   1.000  B 
  B170     1.0000 0.81563  0.26751  0.00000  Biso   1.000  B 
  N18      1.0000 0.87946  0.27877  0.99218  Biso   1.000  N 
  B171     1.0000 0.77872  0.36949  0.00000  Biso   1.000  B 
  B172     1.0000 0.67046  0.40470  0.00000  Biso   1.000  B 
  B173     1.0000 0.65360  0.34640  0.00000  Biso   1.000  B 
  B174     1.0000 0.59529  0.32954  0.00000  Biso   1.000  B 
  C65      1.0000 0.60575  0.18311  0.93347  Biso   1.000  C 
  C66      1.0000 0.59973  0.18262  0.04935  Biso   1.000  C 
  H129     1.0000 0.58876  0.21785  0.08782  Biso   1.000  H 
  H130     1.0000 0.63371  0.14770  0.06844  Biso   1.000  H 
  C67      1.0000 0.54793  0.14549  0.02169  Biso   1.000  C 
  C68      1.0000 0.56023  0.13511  0.95209  Biso   1.000  C 
  H131     1.0000 0.51324  0.18333  0.02372  Biso   1.000  H 
  H132     1.0000 0.52878  0.10374  0.04329  Biso   1.000  H 
  H133     1.0000 0.64963  0.15805  0.91372  Biso   1.000  H 
  H134     1.0000 0.59493  0.21884  0.89704  Biso   1.000  H 
  H135     1.0000 0.52270  0.14349  0.92298  Biso   1.000  H 
  H136     1.0000 0.57545  0.08505  0.94479  Biso   1.000  H 
  C69      1.0000 0.89296  0.28891  0.92875  Biso   1.000  C 
  C70      1.0000 0.90643  0.31365  0.04027  Biso   1.000  C 
  H137     1.0000 0.86890  0.32528  0.07897  Biso   1.000  H 
  C71      1.0000 0.92793  0.37055  0.00399  Biso   1.000  C 
  H138     1.0000 0.93812  0.27975  0.06100  Biso   1.000  H 
  H139     1.0000 0.89684  0.39990  0.03172  Biso   1.000  H 
  C72      1.0000 0.93304  0.34116  0.93636  Biso   1.000  C 
  H140     1.0000 0.96761  0.40126  0.00134  Biso   1.000  H 
  H141     1.0000 0.84606  0.29256  0.89833  Biso   1.000  H 
  H142     1.0000 0.91384  0.24281  0.91044  Biso   1.000  H 
  H143     1.0000 0.97761  0.33753  0.93470  Biso   1.000  H 
  H144     1.0000 0.92333  0.34214  0.88936  Biso   1.000  H 
  B175     1.0000 0.84640  0.65360  0.50000  Biso   1.000  B 
  B176     1.0000 0.90471  0.67046  0.50000  Biso   1.000  B 
  B177     1.0000 0.82954  0.59529  0.50000  Biso   1.000  B 
  B178     1.0000 0.79500  0.70500  0.50000  Biso   1.000  B 
  B179     1.0000 0.73249  0.68437  0.50000  Biso   1.000  B 
  B180     1.0000 0.72128  0.63046  0.50000  Biso   1.000  B 
  N19      1.0000 0.61925  0.71350  0.49361  Biso   1.000  N 
  B181     1.0000 0.68442  0.73248  0.50000  Biso   1.000  B 
  B182     1.0000 0.70500  0.79499  0.50000  Biso   1.000  B 
  B183     1.0000 0.76751  0.81558  0.50000  Biso   1.000  B 
  B184     1.0000 0.81563  0.76751  0.50000  Biso   1.000  B 
  N20      1.0000 0.87948  0.77877  0.49218  Biso   1.000  N 
  B185     1.0000 0.77872  0.86949  0.50000  Biso   1.000  B 
  B186     1.0000 0.67046  0.90470  0.50000  Biso   1.000  B 
  B187     1.0000 0.65360  0.84639  0.50000  Biso   1.000  B 
  B188     1.0000 0.59529  0.82953  0.50000  Biso   1.000  B 
  C73      1.0000 0.60564  0.68318  0.43345  Biso   1.000  C 
  C74      1.0000 0.59989  0.68252  0.54936  Biso   1.000  C 
  H145     1.0000 0.58894  0.71743  0.58811  Biso   1.000  H 
  H146     1.0000 0.63389  0.64749  0.56803  Biso   1.000  H 
  C75      1.0000 0.54798  0.64540  0.52168  Biso   1.000  C 
  C76      1.0000 0.56034  0.63511  0.45200  Biso   1.000  C 
  H147     1.0000 0.51325  0.68332  0.52399  Biso   1.000  H 
  H148     1.0000 0.52881  0.60380  0.54372  Biso   1.000  H 
  H149     1.0000 0.64953  0.65796  0.41386  Biso   1.000  H 
  H150     1.0000 0.59504  0.71893  0.39680  Biso   1.000  H 
  H151     1.0000 0.52269  0.64319  0.42317  Biso   1.000  H 
  H152     1.0000 0.57559  0.58502  0.44479  Biso   1.000  H 
  C77      1.0000 0.89294  0.78897  0.42872  Biso   1.000  C 
  C78      1.0000 0.90646  0.81371  0.54028  Biso   1.000  C 
  H153     1.0000 0.86876  0.82527  0.57887  Biso   1.000  H 
  C79      1.0000 0.92801  0.87058  0.50389  Biso   1.000  C 
  H154     1.0000 0.93815  0.77978  0.56111  Biso   1.000  H 
  H155     1.0000 0.89676  0.89984  0.53149  Biso   1.000  H 
  C80      1.0000 0.93305  0.84110  0.43640  Biso   1.000  C 
  H156     1.0000 0.96769  0.90116  0.50136  Biso   1.000  H 
  H157     1.0000 0.84618  0.79247  0.39820  Biso   1.000  H 
  H158     1.0000 0.91392  0.74292  0.41070  Biso   1.000  H 
  H159     1.0000 0.97758  0.83756  0.43475  Biso   1.000  H 
  H160     1.0000 0.92337  0.84223  0.38934  Biso   1.000  H 
  B189     1.0000 0.34640  0.15360  0.50000  Biso   1.000  B 
  B190     1.0000 0.40471  0.17046  0.50000  Biso   1.000  B 
  B191     1.0000 0.32954  0.09529  0.50000  Biso   1.000  B 
  B192     1.0000 0.29500  0.20500  0.50000  Biso   1.000  B 
  B193     1.0000 0.23249  0.18437  0.50000  Biso   1.000  B 
  B194     1.0000 0.22128  0.13046  0.50000  Biso   1.000  B 
  N21      1.0000 0.11920  0.21351  0.49360  Biso   1.000  N 
  B195     1.0000 0.18442  0.23249  0.50000  Biso   1.000  B 
  B196     1.0000 0.20500  0.29500  0.50000  Biso   1.000  B 
  B197     1.0000 0.26751  0.31558  0.50000  Biso   1.000  B 
  B198     1.0000 0.31563  0.26751  0.50000  Biso   1.000  B 
  N22      1.0000 0.37939  0.27876  0.49212  Biso   1.000  N 
  B199     1.0000 0.27872  0.36949  0.50000  Biso   1.000  B 
  B200     1.0000 0.17046  0.40470  0.50000  Biso   1.000  B 
  B201     1.0000 0.15360  0.34640  0.50000  Biso   1.000  B 
  B202     1.0000 0.09529  0.32954  0.50000  Biso   1.000  B 
  C81      1.0000 0.10572  0.18320  0.43342  Biso   1.000  C 
  C82      1.0000 0.09966  0.18256  0.54924  Biso   1.000  C 
  H161     1.0000 0.08881  0.21756  0.58809  Biso   1.000  H 
  H162     1.0000 0.13377  0.14752  0.56788  Biso   1.000  H 
  C83      1.0000 0.04793  0.14549  0.52157  Biso   1.000  C 
  C84      1.0000 0.06024  0.13500  0.45198  Biso   1.000  C 
  H163     1.0000 0.01330  0.18371  0.52348  Biso   1.000  H 
  H164     1.0000 0.02854  0.10385  0.54347  Biso   1.000  H 
  H165     1.0000 0.14953  0.15811  0.41368  Biso   1.000  H 
  H166     1.0000 0.09504  0.21909  0.39691  Biso   1.000  H 
  H167     1.0000 0.02280  0.14333  0.42297  Biso   1.000  H 
  H168     1.0000 0.07547  0.08482  0.44496  Biso   1.000  H 
  C85      1.0000 0.39290  0.28912  0.42869  Biso   1.000  C 
  C86      1.0000 0.40638  0.31364  0.54033  Biso   1.000  C 
  H169     1.0000 0.36866  0.32528  0.57886  Biso   1.000  H 
  C87      1.0000 0.42801  0.37063  0.50407  Biso   1.000  C 
  H170     1.0000 0.43800  0.27982  0.56128  Biso   1.000  H 
  H171     1.0000 0.39693  0.39970  0.53178  Biso   1.000  H 
  C88      1.0000 0.43308  0.34112  0.43658  Biso   1.000  C 
  H172     1.0000 0.46769  0.40120  0.50161  Biso   1.000  H 
  H173     1.0000 0.34599  0.29278  0.39843  Biso   1.000  H 
  H174     1.0000 0.41386  0.24288  0.41052  Biso   1.000  H 
  H175     1.0000 0.47781  0.33770  0.43501  Biso   1.000  H 
  H176     1.0000 0.42388  0.34217  0.38941  Biso   1.000  H 
  B203     1.0000 0.34640  0.65360  0.00000  Biso   1.000  B 
  B204     1.0000 0.40471  0.67046  0.00000  Biso   1.000  B 
  B205     1.0000 0.32954  0.59529  0.00000  Biso   1.000  B 
  B206     1.0000 0.29500  0.70500  0.00000  Biso   1.000  B 
  B207     1.0000 0.23249  0.68437  0.00000  Biso   1.000  B 
  B208     1.0000 0.22128  0.63046  0.00000  Biso   1.000  B 
  N23      1.0000 0.11920  0.71352  0.99374  Biso   1.000  N 
  B209     1.0000 0.18442  0.73248  0.00000  Biso   1.000  B 
  B210     1.0000 0.20500  0.79499  0.00000  Biso   1.000  B 
  B211     1.0000 0.26751  0.81558  0.00000  Biso   1.000  B 
  B212     1.0000 0.31563  0.76751  0.00000  Biso   1.000  B 
  N24      1.0000 0.37944  0.77874  0.99219  Biso   1.000  N 
  B213     1.0000 0.27872  0.86949  0.00000  Biso   1.000  B 
  B214     1.0000 0.17046  0.90470  0.00000  Biso   1.000  B 
  B215     1.0000 0.15360  0.84639  0.00000  Biso   1.000  B 
  B216     1.0000 0.09529  0.82953  0.00000  Biso   1.000  B 
  C89      1.0000 0.10567  0.68314  0.93361  Biso   1.000  C 
  C90      1.0000 0.09970  0.68267  0.04948  Biso   1.000  C 
  H177     1.0000 0.08892  0.71771  0.08824  Biso   1.000  H 
  H178     1.0000 0.13379  0.64758  0.06825  Biso   1.000  H 
  C91      1.0000 0.04796  0.64556  0.02183  Biso   1.000  C 
  C92      1.0000 0.06016  0.63509  0.95222  Biso   1.000  C 
  H179     1.0000 0.01331  0.68369  0.02384  Biso   1.000  H 
  H180     1.0000 0.02877  0.60390  0.04382  Biso   1.000  H 
  H181     1.0000 0.14938  0.65792  0.91401  Biso   1.000  H 
  H182     1.0000 0.09516  0.71893  0.89707  Biso   1.000  H 
  H183     1.0000 0.02262  0.64348  0.92319  Biso   1.000  H 
  H184     1.0000 0.07526  0.58482  0.94500  Biso   1.000  H 
  C93      1.0000 0.39296  0.78891  0.92875  Biso   1.000  C 
  C94      1.0000 0.40645  0.81358  0.04037  Biso   1.000  C 
  H185     1.0000 0.36875  0.82513  0.07898  Biso   1.000  H 
  C95      1.0000 0.42796  0.87054  0.00404  Biso   1.000  C 
  H186     1.0000 0.43805  0.77977  0.06108  Biso   1.000  H 
  H187     1.0000 0.39685  0.89971  0.03176  Biso   1.000  H 
  C96      1.0000 0.43319  0.84122  0.93648  Biso   1.000  C 
  H188     1.0000 0.46765  0.90133  0.00150  Biso   1.000  H 
  H189     1.0000 0.34610  0.79245  0.89832  Biso   1.000  H 
  H190     1.0000 0.41399  0.74296  0.91064  Biso   1.000  H 
  H191     1.0000 0.47785  0.83768  0.93497  Biso   1.000  H 
  H192     1.0000 0.42384  0.84191  0.88942  Biso   1.000  H 
  B217     1.0000 0.84640  0.84640  0.00000  Biso   1.000  B 
  B218     1.0000 0.90471  0.82954  0.00000  Biso   1.000  B 
  B219     1.0000 0.82954  0.90471  0.00000  Biso   1.000  B 
  B220     1.0000 0.79500  0.79500  0.00000  Biso   1.000  B 
  B221     1.0000 0.73249  0.81563  0.00000  Biso   1.000  B 
  B222     1.0000 0.72128  0.86954  0.00000  Biso   1.000  B 
  N25      1.0000 0.62439  0.78654  0.99952  Biso   1.000  N 
  B223     1.0000 0.68442  0.76752  0.00000  Biso   1.000  B 
  B224     1.0000 0.70500  0.70501  0.00000  Biso   1.000  B 
  B225     1.0000 0.76751  0.68442  0.00000  Biso   1.000  B 
  B226     1.0000 0.81563  0.73249  0.00000  Biso   1.000  B 
  N26      1.0000 0.88202  0.71798  0.99983  Biso   1.000  N 
  B227     1.0000 0.77872  0.63051  0.00000  Biso   1.000  B 
  B228     1.0000 0.67046  0.59530  0.00000  Biso   1.000  B 
  B229     1.0000 0.65360  0.65361  0.00000  Biso   1.000  B 
  B230     1.0000 0.59529  0.67047  0.00000  Biso   1.000  B 
  C97      1.0000 0.60442  0.80216  0.05837  Biso   1.000  C 
  C98      1.0000 0.58495  0.77434  0.94610  Biso   1.000  C 
  H193     1.0000 0.59871  0.73270  0.91667  Biso   1.000  H 
  H194     1.0000 0.58163  0.81621  0.91315  Biso   1.000  H 
  C99      1.0000 0.53243  0.76766  0.98919  Biso   1.000  C 
  C100     1.0000 0.55080  0.82539  0.02825  Biso   1.000  C 
  H195     1.0000 0.52528  0.73268  0.02655  Biso   1.000  H 
  H196     1.0000 0.49554  0.75458  0.96248  Biso   1.000  H 
  H197     1.0000 0.63589  0.83780  0.07832  Biso   1.000  H 
  H198     1.0000 0.60178  0.75986  0.08989  Biso   1.000  H 
  H199     1.0000 0.52190  0.83402  0.06013  Biso   1.000  H 
  H200     1.0000 0.55903  0.87371  0.00234  Biso   1.000  H 
  C101     1.0000 0.89885  0.66299  0.03256  Biso   1.000  C 
  C102     1.0000 0.91634  0.72844  0.94151  Biso   1.000  C 
  H201     1.0000 0.89757  0.76648  0.90671  Biso   1.000  H 
  C103     1.0000 0.90420  0.66788  0.91261  Biso   1.000  C 
  H202     1.0000 0.96690  0.73959  0.95682  Biso   1.000  H 
  H203     1.0000 0.85818  0.67511  0.89098  Biso   1.000  H 
  C104     1.0000 0.91363  0.62639  0.97144  Biso   1.000  C 
  H204     1.0000 0.93629  0.65382  0.87791  Biso   1.000  H 
  H205     1.0000 0.86271  0.64694  0.06401  Biso   1.000  H 
  H206     1.0000 0.93385  0.67703  0.06841  Biso   1.000  H 
  H207     1.0000 0.94911  0.58829  0.97473  Biso   1.000  H 
  H208     1.0000 0.87326  0.60873  0.96013  Biso   1.000  H 
  B231     1.0000 0.84640  0.34640  0.50000  Biso   1.000  B 
  B232     1.0000 0.90471  0.32954  0.50000  Biso   1.000  B 
  B233     1.0000 0.82954  0.40471  0.50000  Biso   1.000  B 
  B234     1.0000 0.79500  0.29500  0.50000  Biso   1.000  B 
  B235     1.0000 0.73249  0.31563  0.50000  Biso   1.000  B 
  B236     1.0000 0.72128  0.36954  0.50000  Biso   1.000  B 
  N27      1.0000 0.62444  0.28658  0.49950  Biso   1.000  N 
  B237     1.0000 0.68442  0.26751  0.50000  Biso   1.000  B 
  B238     1.0000 0.70500  0.20500  0.50000  Biso   1.000  B 
  B239     1.0000 0.76751  0.18442  0.50000  Biso   1.000  B 
  B240     1.0000 0.81563  0.23249  0.50000  Biso   1.000  B 
  N28      1.0000 0.88206  0.21797  0.49978  Biso   1.000  N 
  B241     1.0000 0.77872  0.13051  0.50000  Biso   1.000  B 
  B242     1.0000 0.67046  0.09530  0.50000  Biso   1.000  B 
  B243     1.0000 0.65360  0.15360  0.50000  Biso   1.000  B 
  B244     1.0000 0.59529  0.17046  0.50000  Biso   1.000  B 
  C105     1.0000 0.60435  0.30212  0.55825  Biso   1.000  C 
  C106     1.0000 0.58496  0.27440  0.44597  Biso   1.000  C 
  H209     1.0000 0.59842  0.23245  0.41656  Biso   1.000  H 
  H210     1.0000 0.58187  0.31626  0.41307  Biso   1.000  H 
  C107     1.0000 0.53254  0.26761  0.48902  Biso   1.000  C 
  C108     1.0000 0.55070  0.32541  0.52810  Biso   1.000  C 
  H211     1.0000 0.52529  0.23278  0.52643  Biso   1.000  H 
  H212     1.0000 0.49561  0.25444  0.46237  Biso   1.000  H 
  H213     1.0000 0.63564  0.33782  0.57849  Biso   1.000  H 
  H214     1.0000 0.60181  0.25982  0.58970  Biso   1.000  H 
  H215     1.0000 0.52200  0.33400  0.56014  Biso   1.000  H 
  H216     1.0000 0.55895  0.37388  0.50243  Biso   1.000  H 
  C109     1.0000 0.89896  0.16302  0.53255  Biso   1.000  C 
  C110     1.0000 0.91625  0.22835  0.44141  Biso   1.000  C 
  H217     1.0000 0.89741  0.26644  0.40671  Biso   1.000  H 
  C111     1.0000 0.90411  0.16786  0.41263  Biso   1.000  C 
  H218     1.0000 0.96676  0.23973  0.45667  Biso   1.000  H 
  H219     1.0000 0.85805  0.17488  0.39116  Biso   1.000  H 
  C112     1.0000 0.91366  0.12643  0.47147  Biso   1.000  C 
  H220     1.0000 0.93621  0.15399  0.37796  Biso   1.000  H 
  H221     1.0000 0.86295  0.14673  0.56395  Biso   1.000  H 
  H222     1.0000 0.93403  0.17713  0.56839  Biso   1.000  H 
  H223     1.0000 0.94886  0.08816  0.47472  Biso   1.000  H 
  H224     1.0000 0.87320  0.10887  0.46032  Biso   1.000  H 
  B245     1.0000 0.34640  0.84640  0.50000  Biso   1.000  B 
  B246     1.0000 0.40471  0.82954  0.50000  Biso   1.000  B 
  B247     1.0000 0.32954  0.90471  0.50000  Biso   1.000  B 
  B248     1.0000 0.29500  0.79500  0.50000  Biso   1.000  B 
  B249     1.0000 0.23249  0.81563  0.50000  Biso   1.000  B 
  B250     1.0000 0.22128  0.86954  0.50000  Biso   1.000  B 
  N29      1.0000 0.12445  0.78656  0.49953  Biso   1.000  N 
  B251     1.0000 0.18442  0.76752  0.50000  Biso   1.000  B 
  B252     1.0000 0.20500  0.70501  0.50000  Biso   1.000  B 
  B253     1.0000 0.26751  0.68442  0.50000  Biso   1.000  B 
  B254     1.0000 0.31563  0.73249  0.50000  Biso   1.000  B 
  N30      1.0000 0.38211  0.71794  0.49992  Biso   1.000  N 
  B255     1.0000 0.27872  0.63051  0.50000  Biso   1.000  B 
  B256     1.0000 0.17046  0.59530  0.50000  Biso   1.000  B 
  B257     1.0000 0.15360  0.65361  0.50000  Biso   1.000  B 
  B258     1.0000 0.09529  0.67047  0.50000  Biso   1.000  B 
  C113     1.0000 0.10435  0.80212  0.55830  Biso   1.000  C 
  C114     1.0000 0.08502  0.77443  0.44597  Biso   1.000  C 
  H225     1.0000 0.09850  0.73246  0.41673  Biso   1.000  H 
  H226     1.0000 0.08173  0.81622  0.41304  Biso   1.000  H 
  C115     1.0000 0.03249  0.76770  0.48905  Biso   1.000  C 
  C116     1.0000 0.05073  0.82540  0.52815  Biso   1.000  C 
  H227     1.0000 0.02539  0.73285  0.52657  Biso   1.000  H 
  H228     1.0000 0.99560  0.75436  0.46278  Biso   1.000  H 
  H229     1.0000 0.13573  0.83786  0.57849  Biso   1.000  H 
  H230     1.0000 0.10161  0.75985  0.58986  Biso   1.000  H 
  H231     1.0000 0.02191  0.83390  0.56013  Biso   1.000  H 
  H232     1.0000 0.05901  0.87386  0.50258  Biso   1.000  H 
  C117     1.0000 0.39892  0.66292  0.53266  Biso   1.000  C 
  C118     1.0000 0.41641  0.72833  0.44163  Biso   1.000  C 
  H233     1.0000 0.39763  0.76653  0.40689  Biso   1.000  H 
  C119     1.0000 0.40424  0.66778  0.41272  Biso   1.000  C 
  H234     1.0000 0.46696  0.73964  0.45695  Biso   1.000  H 
  H235     1.0000 0.35818  0.67483  0.39110  Biso   1.000  H 
  C120     1.0000 0.41365  0.62626  0.47157  Biso   1.000  C 
  H236     1.0000 0.43648  0.65388  0.37805  Biso   1.000  H 
  H237     1.0000 0.36282  0.64667  0.56407  Biso   1.000  H 
  H238     1.0000 0.43401  0.67717  0.56842  Biso   1.000  H 
  H239     1.0000 0.44912  0.58818  0.47477  Biso   1.000  H 
  H240     1.0000 0.37343  0.60842  0.46039  Biso   1.000  H 
  B259     1.0000 0.34640  0.34640  0.00000  Biso   1.000  B 
  B260     1.0000 0.40471  0.32954  0.00000  Biso   1.000  B 
  B261     1.0000 0.32954  0.40471  0.00000  Biso   1.000  B 
  B262     1.0000 0.29500  0.29500  0.00000  Biso   1.000  B 
  B263     1.0000 0.23249  0.31563  0.00000  Biso   1.000  B 
  B264     1.0000 0.22128  0.36954  0.00000  Biso   1.000  B 
  N31      1.0000 0.12441  0.28655  0.99954  Biso   1.000  N 
  B265     1.0000 0.18442  0.26751  0.00000  Biso   1.000  B 
  B266     1.0000 0.20500  0.20500  0.00000  Biso   1.000  B 
  B267     1.0000 0.26751  0.18442  0.00000  Biso   1.000  B 
  B268     1.0000 0.31563  0.23249  0.00000  Biso   1.000  B 
  N32      1.0000 0.38206  0.21796  0.99995  Biso   1.000  N 
  B269     1.0000 0.27872  0.13051  0.00000  Biso   1.000  B 
  B270     1.0000 0.17046  0.09530  0.00000  Biso   1.000  B 
  B271     1.0000 0.15360  0.15360  0.00000  Biso   1.000  B 
  B272     1.0000 0.09529  0.17046  0.00000  Biso   1.000  B 
  C121     1.0000 0.10432  0.30210  0.05828  Biso   1.000  C 
  C122     1.0000 0.08499  0.27441  0.94604  Biso   1.000  C 
  H241     1.0000 0.09851  0.23252  0.91680  Biso   1.000  H 
  H242     1.0000 0.08183  0.31623  0.91306  Biso   1.000  H 
  C123     1.0000 0.03245  0.26772  0.98906  Biso   1.000  C 
  C124     1.0000 0.05070  0.32537  0.02818  Biso   1.000  C 
  H243     1.0000 0.02524  0.23275  0.02650  Biso   1.000  H 
  H244     1.0000 0.99568  0.25443  0.96256  Biso   1.000  H 
  H245     1.0000 0.13557  0.33781  0.07844  Biso   1.000  H 
  H246     1.0000 0.10158  0.25981  0.08984  Biso   1.000  H 
  H247     1.0000 0.02192  0.33376  0.06013  Biso   1.000  H 
  H248     1.0000 0.05894  0.37383  0.00260  Biso   1.000  H 
  C125     1.0000 0.39894  0.16287  0.03249  Biso   1.000  C 
  C126     1.0000 0.41646  0.22840  0.94156  Biso   1.000  C 
  H249     1.0000 0.39768  0.26656  0.90692  Biso   1.000  H 
  C127     1.0000 0.40422  0.16794  0.91254  Biso   1.000  C 
  H250     1.0000 0.46693  0.23958  0.95693  Biso   1.000  H 
  H251     1.0000 0.35811  0.17502  0.89097  Biso   1.000  H 
  C128     1.0000 0.41363  0.12632  0.97134  Biso   1.000  C 
  H252     1.0000 0.43637  0.15385  0.87780  Biso   1.000  H 
  H253     1.0000 0.36286  0.14682  0.06375  Biso   1.000  H 
  H254     1.0000 0.43378  0.17708  0.06833  Biso   1.000  H 
  H255     1.0000 0.44887  0.08806  0.97457  Biso   1.000  H 
  H256     1.0000 0.37342  0.10859  0.96011  Biso   1.000  H 
  B273     1.0000 0.00000  0.84640  0.15360  Biso   1.000  B 
  B274     1.0000 0.00000  0.90471  0.17046  Biso   1.000  B 
  B275     1.0000 0.00000  0.82954  0.09529  Biso   1.000  B 
  B276     1.0000 0.00000  0.79500  0.20500  Biso   1.000  B 
  B277     1.0000 0.00000  0.73249  0.18437  Biso   1.000  B 
  B278     1.0000 0.00000  0.72128  0.13046  Biso   1.000  B 
  N33      1.0000 0.99356  0.61923  0.21352  Biso   1.000  N 
  B279     1.0000 0.00000  0.68442  0.23249  Biso   1.000  B 
  B280     1.0000 0.00000  0.70500  0.29500  Biso   1.000  B 
  B281     1.0000 0.00000  0.76751  0.31558  Biso   1.000  B 
  B282     1.0000 0.00000  0.81563  0.26751  Biso   1.000  B 
  N34      1.0000 0.99211  0.87941  0.27879  Biso   1.000  N 
  B283     1.0000 0.00000  0.77872  0.36949  Biso   1.000  B 
  B284     1.0000 0.00000  0.67046  0.40470  Biso   1.000  B 
  B285     1.0000 0.00000  0.65360  0.34640  Biso   1.000  B 
  B286     1.0000 0.00000  0.59529  0.32954  Biso   1.000  B 
  C129     1.0000 0.93337  0.60578  0.18321  Biso   1.000  C 
  C130     1.0000 0.04922  0.59973  0.18254  Biso   1.000  C 
  H257     1.0000 0.08803  0.58884  0.21754  Biso   1.000  H 
  H258     1.0000 0.06806  0.63377  0.14755  Biso   1.000  H 
  C131     1.0000 0.02150  0.54792  0.14548  Biso   1.000  C 
  C132     1.0000 0.95193  0.56033  0.13507  Biso   1.000  C 
  H259     1.0000 0.02340  0.51336  0.18361  Biso   1.000  H 
  H260     1.0000 0.04339  0.52866  0.10380  Biso   1.000  H 
  H261     1.0000 0.91364  0.64959  0.15811  Biso   1.000  H 
  H262     1.0000 0.89689  0.59507  0.21909  Biso   1.000  H 
  H263     1.0000 0.92282  0.52282  0.14328  Biso   1.000  H 
  H264     1.0000 0.94481  0.57554  0.08502  Biso   1.000  H 
  C133     1.0000 0.92868  0.89293  0.28903  Biso   1.000  C 
  C134     1.0000 0.04032  0.90638  0.31366  Biso   1.000  C 
  H265     1.0000 0.07889  0.86858  0.32527  Biso   1.000  H 
  C135     1.0000 0.00402  0.92795  0.37061  Biso   1.000  C 
  H266     1.0000 0.06119  0.93797  0.27978  Biso   1.000  H 
  H267     1.0000 0.03171  0.89681  0.39972  Biso   1.000  H 
  C136     1.0000 0.93651  0.93314  0.34117  Biso   1.000  C 
  H268     1.0000 0.00156  0.96760  0.40121  Biso   1.000  H 
  H269     1.0000 0.89838  0.84602  0.29268  Biso   1.000  H 
  H270     1.0000 0.91053  0.91392  0.24283  Biso   1.000  H 
  H271     1.0000 0.93491  0.97792  0.33775  Biso   1.000  H 
  H272     1.0000 0.88938  0.92390  0.34195  Biso   1.000  H 
  B287     1.0000 0.00000  0.34640  0.65360  Biso   1.000  B 
  B288     1.0000 0.00000  0.40471  0.67046  Biso   1.000  B 
  B289     1.0000 0.00000  0.32954  0.59529  Biso   1.000  B 
  B290     1.0000 0.00000  0.29500  0.70500  Biso   1.000  B 
  B291     1.0000 0.00000  0.23249  0.68437  Biso   1.000  B 
  B292     1.0000 0.00000  0.22128  0.63046  Biso   1.000  B 
  N35      1.0000 0.99358  0.11922  0.71351  Biso   1.000  N 
  B293     1.0000 0.00000  0.18442  0.73248  Biso   1.000  B 
  B294     1.0000 0.00000  0.20500  0.79499  Biso   1.000  B 
  B295     1.0000 0.00000  0.26751  0.81558  Biso   1.000  B 
  B296     1.0000 0.00000  0.31563  0.76751  Biso   1.000  B 
  N36      1.0000 0.99218  0.37947  0.77877  Biso   1.000  N 
  B297     1.0000 0.00000  0.27872  0.86949  Biso   1.000  B 
  B298     1.0000 0.00000  0.17046  0.90470  Biso   1.000  B 
  B299     1.0000 0.00000  0.15360  0.84639  Biso   1.000  B 
  B300     1.0000 0.00000  0.09529  0.82953  Biso   1.000  B 
  C137     1.0000 0.93341  0.10571  0.68317  Biso   1.000  C 
  C138     1.0000 0.04929  0.09980  0.68249  Biso   1.000  C 
  H273     1.0000 0.08798  0.08873  0.71749  Biso   1.000  H 
  H274     1.0000 0.06820  0.13382  0.64755  Biso   1.000  H 
  C139     1.0000 0.02158  0.04793  0.64537  Biso   1.000  C 
  C140     1.0000 0.95194  0.06037  0.63510  Biso   1.000  C 
  H275     1.0000 0.02366  0.01327  0.68332  Biso   1.000  H 
  H276     1.0000 0.04350  0.02876  0.60375  Biso   1.000  H 
  H277     1.0000 0.91379  0.14958  0.65794  Biso   1.000  H 
  H278     1.0000 0.89688  0.09506  0.71889  Biso   1.000  H 
  H279     1.0000 0.92307  0.02266  0.64333  Biso   1.000  H 
  H280     1.0000 0.94471  0.07553  0.58508  Biso   1.000  H 
  C141     1.0000 0.92871  0.39295  0.78897  Biso   1.000  C 
  C142     1.0000 0.04034  0.40641  0.81366  Biso   1.000  C 
  H281     1.0000 0.07888  0.36853  0.82524  Biso   1.000  H 
  C143     1.0000 0.00396  0.42796  0.87056  Biso   1.000  C 
  H282     1.0000 0.06123  0.43799  0.77976  Biso   1.000  H 
  H283     1.0000 0.03160  0.39679  0.89975  Biso   1.000  H 
  C144     1.0000 0.93645  0.43310  0.84117  Biso   1.000  C 
  H284     1.0000 0.00146  0.46764  0.90116  Biso   1.000  H 
  H285     1.0000 0.89826  0.34609  0.79244  Biso   1.000  H 
  H286     1.0000 0.91069  0.41398  0.74295  Biso   1.000  H 
  H287     1.0000 0.93488  0.47777  0.83768  Biso   1.000  H 
  H288     1.0000 0.88933  0.42363  0.84206  Biso   1.000  H 
  B301     1.0000 0.50000  0.84640  0.65360  Biso   1.000  B 
  B302     1.0000 0.50000  0.90471  0.67046  Biso   1.000  B 
  B303     1.0000 0.50000  0.82954  0.59529  Biso   1.000  B 
  B304     1.0000 0.50000  0.79500  0.70500  Biso   1.000  B 
  B305     1.0000 0.50000  0.73249  0.68437  Biso   1.000  B 
  B306     1.0000 0.50000  0.72128  0.63046  Biso   1.000  B 
  N37      1.0000 0.49379  0.61921  0.71352  Biso   1.000  N 
  B307     1.0000 0.50000  0.68442  0.73248  Biso   1.000  B 
  B308     1.0000 0.50000  0.70500  0.79499  Biso   1.000  B 
  B309     1.0000 0.50000  0.76751  0.81558  Biso   1.000  B 
  B310     1.0000 0.50000  0.81563  0.76751  Biso   1.000  B 
  N38      1.0000 0.49221  0.87940  0.77871  Biso   1.000  N 
  B311     1.0000 0.50000  0.77872  0.86949  Biso   1.000  B 
  B312     1.0000 0.50000  0.67046  0.90470  Biso   1.000  B 
  B313     1.0000 0.50000  0.65360  0.84639  Biso   1.000  B 
  B314     1.0000 0.50000  0.59529  0.82953  Biso   1.000  B 
  C145     1.0000 0.43362  0.60560  0.68317  Biso   1.000  C 
  C146     1.0000 0.54954  0.59973  0.68270  Biso   1.000  C 
  H289     1.0000 0.58832  0.58898  0.71770  Biso   1.000  H 
  H290     1.0000 0.56812  0.63378  0.64753  Biso   1.000  H 
  C147     1.0000 0.52189  0.54797  0.64558  Biso   1.000  C 
  C148     1.0000 0.45225  0.56015  0.63512  Biso   1.000  C 
  H291     1.0000 0.52411  0.51333  0.68382  Biso   1.000  H 
  H292     1.0000 0.54403  0.52874  0.60405  Biso   1.000  H 
  H293     1.0000 0.41416  0.64932  0.65789  Biso   1.000  H 
  H294     1.0000 0.39704  0.59515  0.71900  Biso   1.000  H 
  H295     1.0000 0.42335  0.52261  0.64333  Biso   1.000  H 
  H296     1.0000 0.44500  0.57530  0.58484  Biso   1.000  H 
  C149     1.0000 0.42872  0.89286  0.78896  Biso   1.000  C 
  C150     1.0000 0.54029  0.90646  0.81354  Biso   1.000  C 
  H297     1.0000 0.57882  0.86892  0.82510  Biso   1.000  H 
  C151     1.0000 0.50401  0.92802  0.87049  Biso   1.000  C 
  H298     1.0000 0.56106  0.93809  0.77989  Biso   1.000  H 
  H299     1.0000 0.53184  0.89689  0.89980  Biso   1.000  H 
  C152     1.0000 0.43642  0.93303  0.84117  Biso   1.000  C 
  H300     1.0000 0.50155  0.96778  0.90118  Biso   1.000  H 
  H301     1.0000 0.39829  0.84601  0.79249  Biso   1.000  H 
  H302     1.0000 0.41044  0.91393  0.74309  Biso   1.000  H 
  H303     1.0000 0.43477  0.97764  0.83751  Biso   1.000  H 
  H304     1.0000 0.38942  0.92324  0.84219  Biso   1.000  H 
  B315     1.0000 0.50000  0.34640  0.15360  Biso   1.000  B 
  B316     1.0000 0.50000  0.40471  0.17046  Biso   1.000  B 
  B317     1.0000 0.50000  0.32954  0.09529  Biso   1.000  B 
  B318     1.0000 0.50000  0.29500  0.20500  Biso   1.000  B 
  B319     1.0000 0.50000  0.23249  0.18437  Biso   1.000  B 
  B320     1.0000 0.50000  0.22128  0.13046  Biso   1.000  B 
  N39      1.0000 0.49366  0.11930  0.21352  Biso   1.000  N 
  B321     1.0000 0.50000  0.18442  0.23249  Biso   1.000  B 
  B322     1.0000 0.50000  0.20500  0.29500  Biso   1.000  B 
  B323     1.0000 0.50000  0.26751  0.31558  Biso   1.000  B 
  B324     1.0000 0.50000  0.31563  0.26751  Biso   1.000  B 
  N40      1.0000 0.49219  0.37942  0.27876  Biso   1.000  N 
  B325     1.0000 0.50000  0.27872  0.36949  Biso   1.000  B 
  B326     1.0000 0.50000  0.17046  0.40470  Biso   1.000  B 
  B327     1.0000 0.50000  0.15360  0.34640  Biso   1.000  B 
  B328     1.0000 0.50000  0.09529  0.32954  Biso   1.000  B 
  C153     1.0000 0.43357  0.10574  0.18310  Biso   1.000  C 
  C154     1.0000 0.54947  0.09983  0.18269  Biso   1.000  C 
  H305     1.0000 0.58809  0.08897  0.21780  Biso   1.000  H 
  H306     1.0000 0.56833  0.13403  0.14782  Biso   1.000  H 
  C155     1.0000 0.52183  0.04805  0.14550  Biso   1.000  C 
  C156     1.0000 0.45217  0.06021  0.13514  Biso   1.000  C 
  H307     1.0000 0.52401  0.01338  0.18327  Biso   1.000  H 
  H308     1.0000 0.54370  0.02906  0.10375  Biso   1.000  H 
  H309     1.0000 0.41405  0.14950  0.15782  Biso   1.000  H 
  H310     1.0000 0.39692  0.09507  0.21876  Biso   1.000  H 
  H311     1.0000 0.42306  0.02265  0.14350  Biso   1.000  H 
  H312     1.0000 0.44488  0.07531  0.08493  Biso   1.000  H 
  C157     1.0000 0.42877  0.39297  0.28903  Biso   1.000  C 
  C158     1.0000 0.54028  0.40637  0.31371  Biso   1.000  C 
  H313     1.0000 0.57893  0.36887  0.32537  Biso   1.000  H 
  C159     1.0000 0.50400  0.42797  0.37062  Biso   1.000  C 
  H314     1.0000 0.56113  0.43809  0.27980  Biso   1.000  H 
  H315     1.0000 0.53167  0.39691  0.39990  Biso   1.000  H 
  C160     1.0000 0.43642  0.43305  0.34111  Biso   1.000  C 
  H316     1.0000 0.50139  0.46767  0.40125  Biso   1.000  H 
  H317     1.0000 0.39838  0.34608  0.29283  Biso   1.000  H 
  H318     1.0000 0.41040  0.41379  0.24284  Biso   1.000  H 
  H319     1.0000 0.43476  0.47764  0.33751  Biso   1.000  H 
  H320     1.0000 0.38942  0.42345  0.34236  Biso   1.000  H 
  B329     1.0000 0.00000  0.84640  0.84640  Biso   1.000  B 
  B330     1.0000 0.00000  0.90471  0.82954  Biso   1.000  B 
  B331     1.0000 0.00000  0.82954  0.90471  Biso   1.000  B 
  B332     1.0000 0.00000  0.79500  0.79500  Biso   1.000  B 
  B333     1.0000 0.00000  0.73249  0.81563  Biso   1.000  B 
  B334     1.0000 0.00000  0.72128  0.86954  Biso   1.000  B 
  N41      1.0000 0.99948  0.62441  0.78655  Biso   1.000  N 
  B335     1.0000 0.00000  0.68442  0.76752  Biso   1.000  B 
  B336     1.0000 0.00000  0.70500  0.70501  Biso   1.000  B 
  B337     1.0000 0.00000  0.76751  0.68442  Biso   1.000  B 
  B338     1.0000 0.00000  0.81563  0.73249  Biso   1.000  B 
  N42      1.0000 0.99996  0.88210  0.71792  Biso   1.000  N 
  B339     1.0000 0.00000  0.77872  0.63051  Biso   1.000  B 
  B340     1.0000 0.00000  0.67046  0.59530  Biso   1.000  B 
  B341     1.0000 0.00000  0.65360  0.65361  Biso   1.000  B 
  B342     1.0000 0.00000  0.59529  0.67047  Biso   1.000  B 
  C161     1.0000 0.05829  0.60436  0.80219  Biso   1.000  C 
  C162     1.0000 0.94597  0.58496  0.77438  Biso   1.000  C 
  H321     1.0000 0.91661  0.59863  0.73254  Biso   1.000  H 
  H322     1.0000 0.91308  0.58167  0.81614  Biso   1.000  H 
  C163     1.0000 0.98908  0.53252  0.76762  Biso   1.000  C 
  C164     1.0000 0.02814  0.55074  0.82540  Biso   1.000  C 
  H323     1.0000 0.02663  0.52538  0.73282  Biso   1.000  H 
  H324     1.0000 0.96269  0.49552  0.75442  Biso   1.000  H 
  H325     1.0000 0.07841  0.63575  0.83791  Biso   1.000  H 
  H326     1.0000 0.08987  0.60178  0.75994  Biso   1.000  H 
  H327     1.0000 0.06010  0.52190  0.83394  Biso   1.000  H 
  H328     1.0000 0.00244  0.55908  0.87383  Biso   1.000  H 
  C165     1.0000 0.03263  0.89895  0.66288  Biso   1.000  C 
  C166     1.0000 0.94160  0.91641  0.72835  Biso   1.000  C 
  H329     1.0000 0.90699  0.89761  0.76660  Biso   1.000  H 
  C167     1.0000 0.91265  0.90423  0.66787  Biso   1.000  C 
  H330     1.0000 0.95698  0.96696  0.73959  Biso   1.000  H 
  H331     1.0000 0.89099  0.85813  0.67504  Biso   1.000  H 
  C168     1.0000 0.97151  0.91367  0.62623  Biso   1.000  C 
  H332     1.0000 0.87795  0.93642  0.65391  Biso   1.000  H 
  H333     1.0000 0.06396  0.86281  0.64678  Biso   1.000  H 
  H334     1.0000 0.06842  0.93397  0.67708  Biso   1.000  H 
  H335     1.0000 0.97471  0.94902  0.58798  Biso   1.000  H 
  H336     1.0000 0.96024  0.87344  0.60853  Biso   1.000  H 
  B343     1.0000 0.00000  0.34640  0.34640  Biso   1.000  B 
  B344     1.0000 0.00000  0.40471  0.32954  Biso   1.000  B 
  B345     1.0000 0.00000  0.32954  0.40471  Biso   1.000  B 
  B346     1.0000 0.00000  0.29500  0.29500  Biso   1.000  B 
  B347     1.0000 0.00000  0.23249  0.31563  Biso   1.000  B 
  B348     1.0000 0.00000  0.22128  0.36954  Biso   1.000  B 
  N43      1.0000 0.99950  0.12442  0.28653  Biso   1.000  N 
  B349     1.0000 0.00000  0.18442  0.26751  Biso   1.000  B 
  B350     1.0000 0.00000  0.20500  0.20500  Biso   1.000  B 
  B351     1.0000 0.00000  0.26751  0.18442  Biso   1.000  B 
  B352     1.0000 0.00000  0.31563  0.23249  Biso   1.000  B 
  N44      1.0000 0.99983  0.38208  0.21796  Biso   1.000  N 
  B353     1.0000 0.00000  0.27872  0.13051  Biso   1.000  B 
  B354     1.0000 0.00000  0.17046  0.09530  Biso   1.000  B 
  B355     1.0000 0.00000  0.15360  0.15360  Biso   1.000  B 
  B356     1.0000 0.00000  0.09529  0.17046  Biso   1.000  B 
  C169     1.0000 0.05830  0.10439  0.30216  Biso   1.000  C 
  C170     1.0000 0.94602  0.08495  0.27437  Biso   1.000  C 
  H337     1.0000 0.91659  0.09863  0.23260  Biso   1.000  H 
  H338     1.0000 0.91320  0.08181  0.31619  Biso   1.000  H 
  C171     1.0000 0.98910  0.03249  0.26764  Biso   1.000  C 
  C172     1.0000 0.02820  0.05075  0.32540  Biso   1.000  C 
  H339     1.0000 0.02653  0.02525  0.23276  Biso   1.000  H 
  H340     1.0000 0.96237  0.99550  0.25446  Biso   1.000  H 
  H341     1.0000 0.07849  0.13570  0.33775  Biso   1.000  H 
  H342     1.0000 0.08988  0.10182  0.25995  Biso   1.000  H 
  H343     1.0000 0.06007  0.02194  0.33412  Biso   1.000  H 
  H344     1.0000 0.00234  0.05901  0.37371  Biso   1.000  H 
  C173     1.0000 0.03255  0.39897  0.16296  Biso   1.000  C 
  C174     1.0000 0.94143  0.41633  0.22836  Biso   1.000  C 
  H345     1.0000 0.90685  0.39745  0.26653  Biso   1.000  H 
  C175     1.0000 0.91258  0.40406  0.16792  Biso   1.000  C 
  H346     1.0000 0.95674  0.46684  0.23968  Biso   1.000  H 
  H347     1.0000 0.89107  0.35792  0.17496  Biso   1.000  H 
  C176     1.0000 0.97144  0.41366  0.12640  Biso   1.000  C 
  H348     1.0000 0.87791  0.43627  0.15414  Biso   1.000  H 
  H349     1.0000 0.06386  0.36287  0.14677  Biso   1.000  H 
  H350     1.0000 0.06842  0.43396  0.17709  Biso   1.000  H 
  H351     1.0000 0.97474  0.44890  0.08809  Biso   1.000  H 
  H352     1.0000 0.96024  0.37327  0.10878  Biso   1.000  H 
  B357     1.0000 0.50000  0.84640  0.34640  Biso   1.000  B 
  B358     1.0000 0.50000  0.90471  0.32954  Biso   1.000  B 
  B359     1.0000 0.50000  0.82954  0.40471  Biso   1.000  B 
  B360     1.0000 0.50000  0.79500  0.29500  Biso   1.000  B 
  B361     1.0000 0.50000  0.73249  0.31563  Biso   1.000  B 
  B362     1.0000 0.50000  0.72128  0.36954  Biso   1.000  B 
  N45      1.0000 0.49953  0.62442  0.28658  Biso   1.000  N 
  B363     1.0000 0.50000  0.68442  0.26751  Biso   1.000  B 
  B364     1.0000 0.50000  0.70500  0.20500  Biso   1.000  B 
  B365     1.0000 0.50000  0.76751  0.18442  Biso   1.000  B 
  B366     1.0000 0.50000  0.81563  0.23249  Biso   1.000  B 
  N46      1.0000 0.49989  0.88205  0.21795  Biso   1.000  N 
  B367     1.0000 0.50000  0.77872  0.13051  Biso   1.000  B 
  B368     1.0000 0.50000  0.67046  0.09530  Biso   1.000  B 
  B369     1.0000 0.50000  0.65360  0.15360  Biso   1.000  B 
  B370     1.0000 0.50000  0.59529  0.17046  Biso   1.000  B 
  C177     1.0000 0.55824  0.60428  0.30207  Biso   1.000  C 
  C178     1.0000 0.44602  0.58495  0.27443  Biso   1.000  C 
  H353     1.0000 0.41664  0.59843  0.23247  Biso   1.000  H 
  H354     1.0000 0.41308  0.58193  0.31636  Biso   1.000  H 
  C179     1.0000 0.48903  0.53251  0.26772  Biso   1.000  C 
  C180     1.0000 0.52812  0.55067  0.32540  Biso   1.000  C 
  H355     1.0000 0.52640  0.52520  0.23276  Biso   1.000  H 
  H356     1.0000 0.46251  0.49576  0.25435  Biso   1.000  H 
  H357     1.0000 0.57853  0.63550  0.33783  Biso   1.000  H 
  H358     1.0000 0.58975  0.60154  0.25982  Biso   1.000  H 
  H359     1.0000 0.56012  0.52201  0.33377  Biso   1.000  H 
  H360     1.0000 0.50262  0.55892  0.37394  Biso   1.000  H 
  C181     1.0000 0.53246  0.89887  0.16286  Biso   1.000  C 
  C182     1.0000 0.44160  0.91643  0.22844  Biso   1.000  C 
  H361     1.0000 0.40687  0.89760  0.26650  Biso   1.000  H 
  C183     1.0000 0.41254  0.90411  0.16793  Biso   1.000  C 
  H362     1.0000 0.45690  0.96694  0.23966  Biso   1.000  H 
  H363     1.0000 0.39098  0.85819  0.17485  Biso   1.000  H 
  C184     1.0000 0.47131  0.91362  0.12638  Biso   1.000  C 
  H364     1.0000 0.37784  0.93645  0.15380  Biso   1.000  H 
  H365     1.0000 0.56383  0.86290  0.14664  Biso   1.000  H 
  H366     1.0000 0.56828  0.93378  0.17699  Biso   1.000  H 
  H367     1.0000 0.47462  0.94903  0.08831  Biso   1.000  H 
  H368     1.0000 0.46013  0.87335  0.10860  Biso   1.000  H 
  B371     1.0000 0.50000  0.34640  0.84640  Biso   1.000  B 
  B372     1.0000 0.50000  0.40471  0.82954  Biso   1.000  B 
  B373     1.0000 0.50000  0.32954  0.90471  Biso   1.000  B 
  B374     1.0000 0.50000  0.29500  0.79500  Biso   1.000  B 
  B375     1.0000 0.50000  0.23249  0.81563  Biso   1.000  B 
  B376     1.0000 0.50000  0.22128  0.86954  Biso   1.000  B 
  N47      1.0000 0.49953  0.12439  0.78655  Biso   1.000  N 
  B377     1.0000 0.50000  0.18442  0.76752  Biso   1.000  B 
  B378     1.0000 0.50000  0.20500  0.70501  Biso   1.000  B 
  B379     1.0000 0.50000  0.26751  0.68442  Biso   1.000  B 
  B380     1.0000 0.50000  0.31563  0.73249  Biso   1.000  B 
  N48      1.0000 0.49980  0.38202  0.71797  Biso   1.000  N 
  B381     1.0000 0.50000  0.27872  0.63051  Biso   1.000  B 
  B382     1.0000 0.50000  0.17046  0.59530  Biso   1.000  B 
  B383     1.0000 0.50000  0.15360  0.65361  Biso   1.000  B 
  B384     1.0000 0.50000  0.09529  0.67047  Biso   1.000  B 
  C185     1.0000 0.55836  0.10437  0.80204  Biso   1.000  C 
  C186     1.0000 0.44603  0.08499  0.77434  Biso   1.000  C 
  H369     1.0000 0.41684  0.09843  0.73249  Biso   1.000  H 
  H370     1.0000 0.41295  0.08170  0.81617  Biso   1.000  H 
  C187     1.0000 0.48913  0.03242  0.76766  Biso   1.000  C 
  C188     1.0000 0.52816  0.05077  0.82535  Biso   1.000  C 
  H371     1.0000 0.52648  0.02533  0.73277  Biso   1.000  H 
  H372     1.0000 0.46267  0.99560  0.75459  Biso   1.000  H 
  H373     1.0000 0.57853  0.13582  0.83774  Biso   1.000  H 
  H374     1.0000 0.58979  0.10169  0.75956  Biso   1.000  H 
  H375     1.0000 0.56023  0.02195  0.83371  Biso   1.000  H 
  H376     1.0000 0.50242  0.05899  0.87377  Biso   1.000  H 
  C189     1.0000 0.53260  0.39879  0.66299  Biso   1.000  C 
  C190     1.0000 0.44152  0.41631  0.72842  Biso   1.000  C 
  H377     1.0000 0.40664  0.39755  0.76645  Biso   1.000  H 
  C191     1.0000 0.41269  0.40422  0.66776  Biso   1.000  C 
  H378     1.0000 0.45681  0.46690  0.73959  Biso   1.000  H 
  H379     1.0000 0.39101  0.35826  0.67497  Biso   1.000  H 
  C192     1.0000 0.47152  0.41358  0.62640  Biso   1.000  C 
  H380     1.0000 0.37799  0.43634  0.65376  Biso   1.000  H 
  H381     1.0000 0.56413  0.36276  0.64685  Biso   1.000  H 
  H382     1.0000 0.56840  0.43388  0.67712  Biso   1.000  H 
  H383     1.0000 0.47471  0.44925  0.58847  Biso   1.000  H 
  H384     1.0000 0.46022  0.37330  0.60859  Biso   1.000  H 
