data_image0
_cell_length_a       26.896
_cell_length_b       26.896
_cell_length_c       26.896
_cell_angle_alpha    90
_cell_angle_beta     90
_cell_angle_gamma    90

_symmetry_space_group_name_H-M    "P 1"
_symmetry_int_tables_number       1

loop_
  _symmetry_equiv_pos_as_xyz
  'x, y, z'

loop_
  _atom_site_label
  _atom_site_occupancy
  _atom_site_fract_x
  _atom_site_fract_y
  _atom_site_fract_z
  _atom_site_thermal_displace_type
  _atom_site_B_iso_or_equiv
  _atom_site_type_symbol
  B1       1.0000 0.09204  0.00000  0.00000  Biso   1.000  B 
  B2       1.0000 0.90796  0.00000  0.00000  Biso   1.000  B 
  B3       1.0000 0.00000  0.09204  0.00000  Biso   1.000  B 
  B4       1.0000 0.00000  0.90796  0.00000  Biso   1.000  B 
  B5       1.0000 0.00000  0.00000  0.09204  Biso   1.000  B 
  B6       1.0000 0.00000  0.00000  0.90796  Biso   1.000  B 
  B7       1.0000 0.09204  0.50000  0.50000  Biso   1.000  B 
  B8       1.0000 0.90796  0.50000  0.50000  Biso   1.000  B 
  B9       1.0000 0.00000  0.59204  0.50000  Biso   1.000  B 
  B10      1.0000 0.00000  0.40796  0.50000  Biso   1.000  B 
  B11      1.0000 0.00000  0.50000  0.59204  Biso   1.000  B 
  B12      1.0000 0.00000  0.50000  0.40796  Biso   1.000  B 
  B13      1.0000 0.59204  0.00000  0.50000  Biso   1.000  B 
  B14      1.0000 0.40796  0.00000  0.50000  Biso   1.000  B 
  B15      1.0000 0.50000  0.09204  0.50000  Biso   1.000  B 
  B16      1.0000 0.50000  0.90796  0.50000  Biso   1.000  B 
  B17      1.0000 0.50000  0.00000  0.59204  Biso   1.000  B 
  B18      1.0000 0.50000  0.00000  0.40796  Biso   1.000  B 
  B19      1.0000 0.59204  0.50000  0.00000  Biso   1.000  B 
  B20      1.0000 0.40796  0.50000  0.00000  Biso   1.000  B 
  B21      1.0000 0.50000  0.59204  0.00000  Biso   1.000  B 
  B22      1.0000 0.50000  0.40796  0.00000  Biso   1.000  B 
  B23      1.0000 0.50000  0.50000  0.09204  Biso   1.000  B 
  B24      1.0000 0.50000  0.50000  0.90796  Biso   1.000  B 
  B25      1.0000 0.04540  0.04540  0.04540  Biso   1.000  B 
  B26      1.0000 0.95460  0.95460  0.04540  Biso   1.000  B 
  B27      1.0000 0.95460  0.04540  0.95460  Biso   1.000  B 
  B28      1.0000 0.04540  0.95460  0.95460  Biso   1.000  B 
  B29      1.0000 0.04540  0.04540  0.95460  Biso   1.000  B 
  B30      1.0000 0.95460  0.95460  0.95460  Biso   1.000  B 
  B31      1.0000 0.04540  0.95460  0.04540  Biso   1.000  B 
  B32      1.0000 0.95460  0.04540  0.04540  Biso   1.000  B 
  B33      1.0000 0.04540  0.54540  0.54540  Biso   1.000  B 
  B34      1.0000 0.95460  0.45460  0.54540  Biso   1.000  B 
  B35      1.0000 0.95460  0.54540  0.45460  Biso   1.000  B 
  B36      1.0000 0.04540  0.45460  0.45460  Biso   1.000  B 
  B37      1.0000 0.04540  0.54540  0.45460  Biso   1.000  B 
  B38      1.0000 0.95460  0.45460  0.45460  Biso   1.000  B 
  B39      1.0000 0.04540  0.45460  0.54540  Biso   1.000  B 
  B40      1.0000 0.95460  0.54540  0.54540  Biso   1.000  B 
  B41      1.0000 0.54540  0.04540  0.54540  Biso   1.000  B 
  B42      1.0000 0.45460  0.95460  0.54540  Biso   1.000  B 
  B43      1.0000 0.45460  0.04540  0.45460  Biso   1.000  B 
  B44      1.0000 0.54540  0.95460  0.45460  Biso   1.000  B 
  B45      1.0000 0.54540  0.04540  0.45460  Biso   1.000  B 
  B46      1.0000 0.45460  0.95460  0.45460  Biso   1.000  B 
  B47      1.0000 0.54540  0.95460  0.54540  Biso   1.000  B 
  B48      1.0000 0.45460  0.04540  0.54540  Biso   1.000  B 
  B49      1.0000 0.54540  0.54540  0.04540  Biso   1.000  B 
  B50      1.0000 0.45460  0.45460  0.04540  Biso   1.000  B 
  B51      1.0000 0.45460  0.54540  0.95460  Biso   1.000  B 
  B52      1.0000 0.54540  0.45460  0.95460  Biso   1.000  B 
  B53      1.0000 0.54540  0.54540  0.95460  Biso   1.000  B 
  B54      1.0000 0.45460  0.45460  0.95460  Biso   1.000  B 
  B55      1.0000 0.54540  0.45460  0.04540  Biso   1.000  B 
  B56      1.0000 0.45460  0.54540  0.04540  Biso   1.000  B 
  B57      1.0000 0.13260  0.00000  0.07190  Biso   1.000  B 
  B58      1.0000 0.11720  0.00000  0.11720  Biso   1.000  B 
  B59      1.0000 0.07190  0.00000  0.13260  Biso   1.000  B 
  B60      1.0000 0.15650  0.00000  0.15650  Biso   1.000  B 
  B61      1.0000 0.20580  0.00000  0.14470  Biso   1.000  B 
  B62      1.0000 0.14470  0.00000  0.20580  Biso   1.000  B 
  B63      1.0000 0.24200  0.00000  0.17950  Biso   1.000  B 
  F1       1.0000 0.22026  0.00210  0.09296  Biso   1.000  F 
  B64      1.0000 0.17950  0.00000  0.24200  Biso   1.000  B 
  F2       1.0000 0.09296  0.99748  0.22021  Biso   1.000  F 
  B65      1.0000 0.23070  0.00000  0.23070  Biso   1.000  B 
  B66      1.0000 0.26930  0.00000  0.26930  Biso   1.000  B 
  F3       1.0000 0.28831  0.01851  0.16175  Biso   1.000  F 
  B67      1.0000 0.32050  0.00000  0.25800  Biso   1.000  B 
  F4       1.0000 0.15921  0.98476  0.28908  Biso   1.000  F 
  B68      1.0000 0.25800  0.00000  0.32050  Biso   1.000  B 
  B69      1.0000 0.35530  0.00000  0.29420  Biso   1.000  B 
  F5       1.0000 0.33825  0.98148  0.21169  Biso   1.000  F 
  B70      1.0000 0.29420  0.00000  0.35530  Biso   1.000  B 
  F6       1.0000 0.21092  0.01524  0.34079  Biso   1.000  F 
  B71      1.0000 0.34350  0.00000  0.34350  Biso   1.000  B 
  B72      1.0000 0.38280  0.00000  0.38280  Biso   1.000  B 
  F7       1.0000 0.40703  0.99789  0.27974  Biso   1.000  F 
  F8       1.0000 0.27979  0.00251  0.40705  Biso   1.000  F 
  B73      1.0000 0.42810  0.00000  0.36740  Biso   1.000  B 
  B74      1.0000 0.36740  0.00000  0.42810  Biso   1.000  B 
  B75      1.0000 0.86740  0.00000  0.07190  Biso   1.000  B 
  B76      1.0000 0.88280  0.00000  0.11720  Biso   1.000  B 
  B77      1.0000 0.92810  0.00000  0.13260  Biso   1.000  B 
  B78      1.0000 0.84350  0.00000  0.15650  Biso   1.000  B 
  B79      1.0000 0.79420  0.00000  0.14470  Biso   1.000  B 
  B80      1.0000 0.85530  0.00000  0.20580  Biso   1.000  B 
  B81      1.0000 0.75800  0.00000  0.17950  Biso   1.000  B 
  F9       1.0000 0.77971  0.00371  0.09310  Biso   1.000  F 
  B82      1.0000 0.82050  0.00000  0.24200  Biso   1.000  B 
  F10      1.0000 0.90707  0.99778  0.22020  Biso   1.000  F 
  B83      1.0000 0.76930  0.00000  0.23070  Biso   1.000  B 
  B84      1.0000 0.73070  0.00000  0.26930  Biso   1.000  B 
  F11      1.0000 0.71281  0.02414  0.16310  Biso   1.000  F 
  B85      1.0000 0.67950  0.00000  0.25800  Biso   1.000  B 
  F12      1.0000 0.83987  0.98351  0.28935  Biso   1.000  F 
  B86      1.0000 0.74200  0.00000  0.32050  Biso   1.000  B 
  B87      1.0000 0.64470  0.00000  0.29420  Biso   1.000  B 
  F13      1.0000 0.66310  0.97586  0.21281  Biso   1.000  F 
  B88      1.0000 0.70580  0.00000  0.35530  Biso   1.000  B 
  F14      1.0000 0.78935  0.01649  0.33987  Biso   1.000  F 
  B89      1.0000 0.65650  0.00000  0.34350  Biso   1.000  B 
  B90      1.0000 0.61720  0.00000  0.38280  Biso   1.000  B 
  F15      1.0000 0.59310  0.99626  0.27971  Biso   1.000  F 
  F16      1.0000 0.72020  0.00222  0.40707  Biso   1.000  F 
  B91      1.0000 0.57190  0.00000  0.36740  Biso   1.000  B 
  B92      1.0000 0.63260  0.00000  0.42810  Biso   1.000  B 
  B93      1.0000 0.86740  0.00000  0.92810  Biso   1.000  B 
  B94      1.0000 0.88280  0.00000  0.88280  Biso   1.000  B 
  B95      1.0000 0.92810  0.00000  0.86740  Biso   1.000  B 
  B96      1.0000 0.84350  0.00000  0.84350  Biso   1.000  B 
  B97      1.0000 0.79420  0.00000  0.85530  Biso   1.000  B 
  B98      1.0000 0.85530  0.00000  0.79420  Biso   1.000  B 
  B99      1.0000 0.75800  0.00000  0.82050  Biso   1.000  B 
  F17      1.0000 0.77977  0.99635  0.90697  Biso   1.000  F 
  B100     1.0000 0.82050  0.00000  0.75800  Biso   1.000  B 
  F18      1.0000 0.90706  0.99752  0.77979  Biso   1.000  F 
  B101     1.0000 0.76930  0.00000  0.76930  Biso   1.000  B 
  B102     1.0000 0.73070  0.00000  0.73070  Biso   1.000  B 
  F19      1.0000 0.71169  0.97938  0.83813  Biso   1.000  F 
  B103     1.0000 0.67950  0.00000  0.74200  Biso   1.000  B 
  F20      1.0000 0.84073  0.98484  0.71073  Biso   1.000  F 
  B104     1.0000 0.74200  0.00000  0.67950  Biso   1.000  B 
  B105     1.0000 0.64470  0.00000  0.70580  Biso   1.000  B 
  F21      1.0000 0.66186  0.02062  0.78831  Biso   1.000  F 
  B106     1.0000 0.70580  0.00000  0.64470  Biso   1.000  B 
  F22      1.0000 0.78927  0.01516  0.65927  Biso   1.000  F 
  B107     1.0000 0.65650  0.00000  0.65650  Biso   1.000  B 
  B108     1.0000 0.61720  0.00000  0.61720  Biso   1.000  B 
  F23      1.0000 0.59303  0.00363  0.72023  Biso   1.000  F 
  F24      1.0000 0.72021  0.00249  0.59294  Biso   1.000  F 
  B109     1.0000 0.57190  0.00000  0.63260  Biso   1.000  B 
  B110     1.0000 0.63260  0.00000  0.57190  Biso   1.000  B 
  B111     1.0000 0.13260  0.00000  0.92810  Biso   1.000  B 
  B112     1.0000 0.11720  0.00000  0.88280  Biso   1.000  B 
  B113     1.0000 0.07190  0.00000  0.86740  Biso   1.000  B 
  B114     1.0000 0.15650  0.00000  0.84350  Biso   1.000  B 
  B115     1.0000 0.20580  0.00000  0.85530  Biso   1.000  B 
  B116     1.0000 0.14470  0.00000  0.79420  Biso   1.000  B 
  B117     1.0000 0.24200  0.00000  0.82050  Biso   1.000  B 
  F25      1.0000 0.22026  0.00375  0.90692  Biso   1.000  F 
  B118     1.0000 0.17950  0.00000  0.75800  Biso   1.000  B 
  F26      1.0000 0.09294  0.99789  0.77973  Biso   1.000  F 
  B119     1.0000 0.23070  0.00000  0.76930  Biso   1.000  B 
  B120     1.0000 0.26930  0.00000  0.73070  Biso   1.000  B 
  F27      1.0000 0.28780  0.02222  0.83768  Biso   1.000  F 
  B121     1.0000 0.32050  0.00000  0.74200  Biso   1.000  B 
  F28      1.0000 0.16110  0.98280  0.71166  Biso   1.000  F 
  B122     1.0000 0.25800  0.00000  0.67950  Biso   1.000  B 
  B123     1.0000 0.35530  0.00000  0.70580  Biso   1.000  B 
  F29      1.0000 0.33768  0.97778  0.78780  Biso   1.000  F 
  B124     1.0000 0.29420  0.00000  0.64470  Biso   1.000  B 
  F30      1.0000 0.21165  0.01720  0.66110  Biso   1.000  F 
  B125     1.0000 0.34350  0.00000  0.65650  Biso   1.000  B 
  B126     1.0000 0.38280  0.00000  0.61720  Biso   1.000  B 
  F31      1.0000 0.40692  0.99627  0.72026  Biso   1.000  F 
  F32      1.0000 0.27973  0.00211  0.59294  Biso   1.000  F 
  B127     1.0000 0.42810  0.00000  0.63260  Biso   1.000  B 
  B128     1.0000 0.36740  0.00000  0.57190  Biso   1.000  B 
  B129     1.0000 0.07190  0.13260  0.00000  Biso   1.000  B 
  B130     1.0000 0.11720  0.11720  0.00000  Biso   1.000  B 
  B131     1.0000 0.13260  0.07190  0.00000  Biso   1.000  B 
  B132     1.0000 0.15650  0.15650  0.00000  Biso   1.000  B 
  B133     1.0000 0.14470  0.20580  0.00000  Biso   1.000  B 
  B134     1.0000 0.20580  0.14470  0.00000  Biso   1.000  B 
  B135     1.0000 0.17950  0.24200  0.00000  Biso   1.000  B 
  F33      1.0000 0.09292  0.22021  0.00179  Biso   1.000  F 
  B136     1.0000 0.24200  0.17950  0.00000  Biso   1.000  B 
  F34      1.0000 0.22027  0.09296  0.00207  Biso   1.000  F 
  B137     1.0000 0.23070  0.23070  0.00000  Biso   1.000  B 
  B138     1.0000 0.26930  0.26930  0.00000  Biso   1.000  B 
  F35      1.0000 0.16147  0.28915  0.01832  Biso   1.000  F 
  B139     1.0000 0.25800  0.32050  0.00000  Biso   1.000  B 
  F36      1.0000 0.28823  0.16149  0.01788  Biso   1.000  F 
  B140     1.0000 0.32050  0.25800  0.00000  Biso   1.000  B 
  B141     1.0000 0.29420  0.35530  0.00000  Biso   1.000  B 
  F37      1.0000 0.21085  0.33853  0.98168  Biso   1.000  F 
  B142     1.0000 0.35530  0.29420  0.00000  Biso   1.000  B 
  F38      1.0000 0.33852  0.21177  0.98211  Biso   1.000  F 
  B143     1.0000 0.34350  0.34350  0.00000  Biso   1.000  B 
  B144     1.0000 0.38280  0.38280  0.00000  Biso   1.000  B 
  F39      1.0000 0.27979  0.40708  0.99822  Biso   1.000  F 
  F40      1.0000 0.40704  0.27973  0.99792  Biso   1.000  F 
  B145     1.0000 0.36740  0.42810  0.00000  Biso   1.000  B 
  B146     1.0000 0.42810  0.36740  0.00000  Biso   1.000  B 
  B147     1.0000 0.07190  0.86740  0.00000  Biso   1.000  B 
  B148     1.0000 0.11720  0.88280  0.00000  Biso   1.000  B 
  B149     1.0000 0.13260  0.92810  0.00000  Biso   1.000  B 
  B150     1.0000 0.15650  0.84350  0.00000  Biso   1.000  B 
  B151     1.0000 0.14470  0.79420  0.00000  Biso   1.000  B 
  B152     1.0000 0.20580  0.85530  0.00000  Biso   1.000  B 
  B153     1.0000 0.17950  0.75800  0.00000  Biso   1.000  B 
  F41      1.0000 0.09292  0.77979  0.00176  Biso   1.000  F 
  B154     1.0000 0.24200  0.82050  0.00000  Biso   1.000  B 
  F42      1.0000 0.22029  0.90689  0.00375  Biso   1.000  F 
  B155     1.0000 0.23070  0.76930  0.00000  Biso   1.000  B 
  B156     1.0000 0.26930  0.73070  0.00000  Biso   1.000  B 
  F43      1.0000 0.16156  0.71088  0.01849  Biso   1.000  F 
  B157     1.0000 0.25800  0.67950  0.00000  Biso   1.000  B 
  F44      1.0000 0.28718  0.83689  0.02416  Biso   1.000  F 
  B158     1.0000 0.32050  0.74200  0.00000  Biso   1.000  B 
  B159     1.0000 0.29420  0.64470  0.00000  Biso   1.000  B 
  F45      1.0000 0.21088  0.66156  0.98151  Biso   1.000  F 
  B160     1.0000 0.35530  0.70580  0.00000  Biso   1.000  B 
  F46      1.0000 0.33689  0.78718  0.97584  Biso   1.000  F 
  B161     1.0000 0.34350  0.65650  0.00000  Biso   1.000  B 
  B162     1.0000 0.38280  0.61720  0.00000  Biso   1.000  B 
  F47      1.0000 0.27979  0.59292  0.99823  Biso   1.000  F 
  F48      1.0000 0.40689  0.72029  0.99626  Biso   1.000  F 
  B163     1.0000 0.36740  0.57190  0.00000  Biso   1.000  B 
  B164     1.0000 0.42810  0.63260  0.00000  Biso   1.000  B 
  B165     1.0000 0.92810  0.86740  0.00000  Biso   1.000  B 
  B166     1.0000 0.88280  0.88280  0.00000  Biso   1.000  B 
  B167     1.0000 0.86740  0.92810  0.00000  Biso   1.000  B 
  B168     1.0000 0.84350  0.84350  0.00000  Biso   1.000  B 
  B169     1.0000 0.85530  0.79420  0.00000  Biso   1.000  B 
  B170     1.0000 0.79420  0.85530  0.00000  Biso   1.000  B 
  B171     1.0000 0.82050  0.75800  0.00000  Biso   1.000  B 
  F49      1.0000 0.90708  0.77979  0.00198  Biso   1.000  F 
  B172     1.0000 0.75800  0.82050  0.00000  Biso   1.000  B 
  F50      1.0000 0.77983  0.90703  0.00331  Biso   1.000  F 
  B173     1.0000 0.76930  0.76930  0.00000  Biso   1.000  B 
  B174     1.0000 0.73070  0.73070  0.00000  Biso   1.000  B 
  F51      1.0000 0.83912  0.71070  0.01741  Biso   1.000  F 
  B175     1.0000 0.74200  0.67950  0.00000  Biso   1.000  B 
  F52      1.0000 0.71108  0.83821  0.01939  Biso   1.000  F 
  B176     1.0000 0.67950  0.74200  0.00000  Biso   1.000  B 
  B177     1.0000 0.70580  0.64470  0.00000  Biso   1.000  B 
  F53      1.0000 0.78930  0.66088  0.98258  Biso   1.000  F 
  B178     1.0000 0.64470  0.70580  0.00000  Biso   1.000  B 
  F54      1.0000 0.66179  0.78892  0.98061  Biso   1.000  F 
  B179     1.0000 0.65650  0.65650  0.00000  Biso   1.000  B 
  B180     1.0000 0.61720  0.61720  0.00000  Biso   1.000  B 
  F55      1.0000 0.72021  0.59292  0.99803  Biso   1.000  F 
  F56      1.0000 0.59296  0.72017  0.99671  Biso   1.000  F 
  B181     1.0000 0.63260  0.57190  0.00000  Biso   1.000  B 
  B182     1.0000 0.57190  0.63260  0.00000  Biso   1.000  B 
  B183     1.0000 0.92810  0.13260  0.00000  Biso   1.000  B 
  B184     1.0000 0.88280  0.11720  0.00000  Biso   1.000  B 
  B185     1.0000 0.86740  0.07190  0.00000  Biso   1.000  B 
  B186     1.0000 0.84350  0.15650  0.00000  Biso   1.000  B 
  B187     1.0000 0.85530  0.20580  0.00000  Biso   1.000  B 
  B188     1.0000 0.79420  0.14470  0.00000  Biso   1.000  B 
  B189     1.0000 0.82050  0.24200  0.00000  Biso   1.000  B 
  F57      1.0000 0.90707  0.22020  0.00221  Biso   1.000  F 
  B190     1.0000 0.75800  0.17950  0.00000  Biso   1.000  B 
  F58      1.0000 0.77973  0.09294  0.00210  Biso   1.000  F 
  B191     1.0000 0.76930  0.23070  0.00000  Biso   1.000  B 
  B192     1.0000 0.73070  0.26930  0.00000  Biso   1.000  B 
  F59      1.0000 0.83981  0.28935  0.01656  Biso   1.000  F 
  B193     1.0000 0.74200  0.32050  0.00000  Biso   1.000  B 
  F60      1.0000 0.71157  0.16097  0.01701  Biso   1.000  F 
  B194     1.0000 0.67950  0.25800  0.00000  Biso   1.000  B 
  B195     1.0000 0.70580  0.35530  0.00000  Biso   1.000  B 
  F61      1.0000 0.78935  0.33981  0.98344  Biso   1.000  F 
  B196     1.0000 0.64470  0.29420  0.00000  Biso   1.000  B 
  F62      1.0000 0.66097  0.21157  0.98299  Biso   1.000  F 
  B197     1.0000 0.65650  0.34350  0.00000  Biso   1.000  B 
  B198     1.0000 0.61720  0.38280  0.00000  Biso   1.000  B 
  F63      1.0000 0.72020  0.40707  0.99778  Biso   1.000  F 
  F64      1.0000 0.59294  0.27973  0.99787  Biso   1.000  F 
  B199     1.0000 0.63260  0.42810  0.00000  Biso   1.000  B 
  B200     1.0000 0.57190  0.36740  0.00000  Biso   1.000  B 
  B201     1.0000 0.00000  0.07190  0.13260  Biso   1.000  B 
  B202     1.0000 0.00000  0.11720  0.11720  Biso   1.000  B 
  B203     1.0000 0.00000  0.13260  0.07190  Biso   1.000  B 
  B204     1.0000 0.00000  0.15650  0.15650  Biso   1.000  B 
  B205     1.0000 0.00000  0.14470  0.20580  Biso   1.000  B 
  B206     1.0000 0.00000  0.20580  0.14470  Biso   1.000  B 
  B207     1.0000 0.00000  0.17950  0.24200  Biso   1.000  B 
  F65      1.0000 0.99864  0.09298  0.22018  Biso   1.000  F 
  B208     1.0000 0.00000  0.24200  0.17950  Biso   1.000  B 
  F66      1.0000 0.99869  0.22021  0.09293  Biso   1.000  F 
  B209     1.0000 0.00000  0.23070  0.23070  Biso   1.000  B 
  B210     1.0000 0.00000  0.26930  0.26930  Biso   1.000  B 
  F67      1.0000 0.97688  0.16355  0.28791  Biso   1.000  F 
  B211     1.0000 0.00000  0.25800  0.32050  Biso   1.000  B 
  F68      1.0000 0.97483  0.28757  0.16460  Biso   1.000  F 
  B212     1.0000 0.00000  0.32050  0.25800  Biso   1.000  B 
  B213     1.0000 0.00000  0.29420  0.35530  Biso   1.000  B 
  F69      1.0000 0.02312  0.21209  0.33645  Biso   1.000  F 
  B214     1.0000 0.00000  0.35530  0.29420  Biso   1.000  B 
  F70      1.0000 0.02518  0.33540  0.21243  Biso   1.000  F 
  B215     1.0000 0.00000  0.34350  0.34350  Biso   1.000  B 
  B216     1.0000 0.00000  0.38280  0.38280  Biso   1.000  B 
  F71      1.0000 0.00136  0.27982  0.40702  Biso   1.000  F 
  F72      1.0000 0.00131  0.40707  0.27980  Biso   1.000  F 
  B217     1.0000 0.00000  0.36740  0.42810  Biso   1.000  B 
  B218     1.0000 0.00000  0.42810  0.36740  Biso   1.000  B 
  B219     1.0000 0.00000  0.07190  0.86740  Biso   1.000  B 
  B220     1.0000 0.00000  0.11720  0.88280  Biso   1.000  B 
  B221     1.0000 0.00000  0.13260  0.92810  Biso   1.000  B 
  B222     1.0000 0.00000  0.15650  0.84350  Biso   1.000  B 
  B223     1.0000 0.00000  0.14470  0.79420  Biso   1.000  B 
  B224     1.0000 0.00000  0.20580  0.85530  Biso   1.000  B 
  B225     1.0000 0.00000  0.17950  0.75800  Biso   1.000  B 
  F73      1.0000 0.99861  0.09297  0.77981  Biso   1.000  F 
  B226     1.0000 0.00000  0.24200  0.82050  Biso   1.000  B 
  F74      1.0000 0.99868  0.22021  0.90706  Biso   1.000  F 
  B227     1.0000 0.00000  0.23070  0.76930  Biso   1.000  B 
  B228     1.0000 0.00000  0.26930  0.73070  Biso   1.000  B 
  F75      1.0000 0.97748  0.16332  0.71183  Biso   1.000  F 
  B229     1.0000 0.00000  0.25800  0.67950  Biso   1.000  B 
  F76      1.0000 0.97480  0.28757  0.83539  Biso   1.000  F 
  B230     1.0000 0.00000  0.32050  0.74200  Biso   1.000  B 
  B231     1.0000 0.00000  0.29420  0.64470  Biso   1.000  B 
  F77      1.0000 0.02252  0.21183  0.66331  Biso   1.000  F 
  B232     1.0000 0.00000  0.35530  0.70580  Biso   1.000  B 
  F78      1.0000 0.02520  0.33539  0.78757  Biso   1.000  F 
  B233     1.0000 0.00000  0.34350  0.65650  Biso   1.000  B 
  B234     1.0000 0.00000  0.38280  0.61720  Biso   1.000  B 
  F79      1.0000 0.00138  0.27981  0.59297  Biso   1.000  F 
  F80      1.0000 0.00132  0.40707  0.72020  Biso   1.000  F 
  B235     1.0000 0.00000  0.36740  0.57190  Biso   1.000  B 
  B236     1.0000 0.00000  0.42810  0.63260  Biso   1.000  B 
  B237     1.0000 0.00000  0.92810  0.86740  Biso   1.000  B 
  B238     1.0000 0.00000  0.88280  0.88280  Biso   1.000  B 
  B239     1.0000 0.00000  0.86740  0.92810  Biso   1.000  B 
  B240     1.0000 0.00000  0.84350  0.84350  Biso   1.000  B 
  B241     1.0000 0.00000  0.85530  0.79420  Biso   1.000  B 
  B242     1.0000 0.00000  0.79420  0.85530  Biso   1.000  B 
  B243     1.0000 0.00000  0.82050  0.75800  Biso   1.000  B 
  F81      1.0000 0.99858  0.90704  0.77980  Biso   1.000  F 
  B244     1.0000 0.00000  0.75800  0.82050  Biso   1.000  B 
  F82      1.0000 0.99868  0.77979  0.90706  Biso   1.000  F 
  B245     1.0000 0.00000  0.76930  0.76930  Biso   1.000  B 
  B246     1.0000 0.00000  0.73070  0.73070  Biso   1.000  B 
  F83      1.0000 0.97810  0.83692  0.71162  Biso   1.000  F 
  B247     1.0000 0.00000  0.74200  0.67950  Biso   1.000  B 
  F84      1.0000 0.97474  0.71243  0.83536  Biso   1.000  F 
  B248     1.0000 0.00000  0.67950  0.74200  Biso   1.000  B 
  B249     1.0000 0.00000  0.70580  0.64470  Biso   1.000  B 
  F85      1.0000 0.02190  0.78838  0.66308  Biso   1.000  F 
  B250     1.0000 0.00000  0.64470  0.70580  Biso   1.000  B 
  F86      1.0000 0.02526  0.66464  0.78757  Biso   1.000  F 
  B251     1.0000 0.00000  0.65650  0.65650  Biso   1.000  B 
  B252     1.0000 0.00000  0.61720  0.61720  Biso   1.000  B 
  F87      1.0000 0.00143  0.72020  0.59296  Biso   1.000  F 
  F88      1.0000 0.00131  0.59293  0.72021  Biso   1.000  F 
  B253     1.0000 0.00000  0.63260  0.57190  Biso   1.000  B 
  B254     1.0000 0.00000  0.57190  0.63260  Biso   1.000  B 
  B255     1.0000 0.00000  0.92810  0.13260  Biso   1.000  B 
  B256     1.0000 0.00000  0.88280  0.11720  Biso   1.000  B 
  B257     1.0000 0.00000  0.86740  0.07190  Biso   1.000  B 
  B258     1.0000 0.00000  0.84350  0.15650  Biso   1.000  B 
  B259     1.0000 0.00000  0.85530  0.20580  Biso   1.000  B 
  B260     1.0000 0.00000  0.79420  0.14470  Biso   1.000  B 
  B261     1.0000 0.00000  0.82050  0.24200  Biso   1.000  B 
  F89      1.0000 0.99864  0.90702  0.22019  Biso   1.000  F 
  B262     1.0000 0.00000  0.75800  0.17950  Biso   1.000  B 
  F90      1.0000 0.99869  0.77979  0.09293  Biso   1.000  F 
  B263     1.0000 0.00000  0.76930  0.23070  Biso   1.000  B 
  B264     1.0000 0.00000  0.73070  0.26930  Biso   1.000  B 
  F91      1.0000 0.97712  0.83654  0.28802  Biso   1.000  F 
  B265     1.0000 0.00000  0.74200  0.32050  Biso   1.000  B 
  F92      1.0000 0.97479  0.71243  0.16462  Biso   1.000  F 
  B266     1.0000 0.00000  0.67950  0.25800  Biso   1.000  B 
  B267     1.0000 0.00000  0.70580  0.35530  Biso   1.000  B 
  F93      1.0000 0.02289  0.78802  0.33654  Biso   1.000  F 
  B268     1.0000 0.00000  0.64470  0.29420  Biso   1.000  B 
  F94      1.0000 0.02521  0.66462  0.21243  Biso   1.000  F 
  B269     1.0000 0.00000  0.65650  0.34350  Biso   1.000  B 
  B270     1.0000 0.00000  0.61720  0.38280  Biso   1.000  B 
  F95      1.0000 0.00136  0.72019  0.40702  Biso   1.000  F 
  F96      1.0000 0.00131  0.59293  0.27979  Biso   1.000  F 
  B271     1.0000 0.00000  0.63260  0.42810  Biso   1.000  B 
  B272     1.0000 0.00000  0.57190  0.36740  Biso   1.000  B 
  B273     1.0000 0.13260  0.50000  0.57190  Biso   1.000  B 
  B274     1.0000 0.11720  0.50000  0.61720  Biso   1.000  B 
  B275     1.0000 0.07190  0.50000  0.63260  Biso   1.000  B 
  B276     1.0000 0.15650  0.50000  0.65650  Biso   1.000  B 
  B277     1.0000 0.20580  0.50000  0.64470  Biso   1.000  B 
  B278     1.0000 0.14470  0.50000  0.70580  Biso   1.000  B 
  B279     1.0000 0.24200  0.50000  0.67950  Biso   1.000  B 
  F97      1.0000 0.22032  0.50084  0.59296  Biso   1.000  F 
  B280     1.0000 0.17950  0.50000  0.74200  Biso   1.000  B 
  F98      1.0000 0.09310  0.50501  0.72013  Biso   1.000  F 
  B281     1.0000 0.23070  0.50000  0.73070  Biso   1.000  B 
  B282     1.0000 0.26930  0.50000  0.76930  Biso   1.000  B 
  F99      1.0000 0.28908  0.51936  0.66091  Biso   1.000  F 
  B283     1.0000 0.32050  0.50000  0.75800  Biso   1.000  B 
  F100     1.0000 0.15875  0.51359  0.78881  Biso   1.000  F 
  B284     1.0000 0.25800  0.50000  0.82050  Biso   1.000  B 
  B285     1.0000 0.35530  0.50000  0.79420  Biso   1.000  B 
  F101     1.0000 0.33909  0.48064  0.71092  Biso   1.000  F 
  B286     1.0000 0.29420  0.50000  0.85530  Biso   1.000  B 
  F102     1.0000 0.21119  0.48641  0.84125  Biso   1.000  F 
  B287     1.0000 0.34350  0.50000  0.84350  Biso   1.000  B 
  B288     1.0000 0.38280  0.50000  0.88280  Biso   1.000  B 
  F103     1.0000 0.40704  0.49916  0.77968  Biso   1.000  F 
  F104     1.0000 0.27987  0.49499  0.90690  Biso   1.000  F 
  B289     1.0000 0.42810  0.50000  0.86740  Biso   1.000  B 
  B290     1.0000 0.36740  0.50000  0.92810  Biso   1.000  B 
  B291     1.0000 0.86740  0.50000  0.57190  Biso   1.000  B 
  B292     1.0000 0.88280  0.50000  0.61720  Biso   1.000  B 
  B293     1.0000 0.92810  0.50000  0.63260  Biso   1.000  B 
  B294     1.0000 0.84350  0.50000  0.65650  Biso   1.000  B 
  B295     1.0000 0.79420  0.50000  0.64470  Biso   1.000  B 
  B296     1.0000 0.85530  0.50000  0.70580  Biso   1.000  B 
  B297     1.0000 0.75800  0.50000  0.67950  Biso   1.000  B 
  F105     1.0000 0.77958  0.49791  0.59304  Biso   1.000  F 
  B298     1.0000 0.82050  0.50000  0.74200  Biso   1.000  B 
  F106     1.0000 0.90699  0.49673  0.72018  Biso   1.000  F 
  B299     1.0000 0.76930  0.50000  0.73070  Biso   1.000  B 
  B300     1.0000 0.73070  0.50000  0.76930  Biso   1.000  B 
  F107     1.0000 0.71367  0.47145  0.66642  Biso   1.000  F 
  B301     1.0000 0.67950  0.50000  0.75800  Biso   1.000  B 
  F108     1.0000 0.83909  0.48253  0.78839  Biso   1.000  F 
  B302     1.0000 0.74200  0.50000  0.82050  Biso   1.000  B 
  B303     1.0000 0.64470  0.50000  0.79420  Biso   1.000  B 
  F109     1.0000 0.66642  0.52855  0.71367  Biso   1.000  F 
  B304     1.0000 0.70580  0.50000  0.85530  Biso   1.000  B 
  F110     1.0000 0.78839  0.51747  0.83909  Biso   1.000  F 
  B305     1.0000 0.65650  0.50000  0.84350  Biso   1.000  B 
  B306     1.0000 0.61720  0.50000  0.88280  Biso   1.000  B 
  F111     1.0000 0.59304  0.50209  0.77958  Biso   1.000  F 
  F112     1.0000 0.72018  0.50326  0.90699  Biso   1.000  F 
  B307     1.0000 0.57190  0.50000  0.86740  Biso   1.000  B 
  B308     1.0000 0.63260  0.50000  0.92810  Biso   1.000  B 
  B309     1.0000 0.86740  0.50000  0.42810  Biso   1.000  B 
  B310     1.0000 0.88280  0.50000  0.38280  Biso   1.000  B 
  B311     1.0000 0.92810  0.50000  0.36740  Biso   1.000  B 
  B312     1.0000 0.84350  0.50000  0.34350  Biso   1.000  B 
  B313     1.0000 0.79420  0.50000  0.35530  Biso   1.000  B 
  B314     1.0000 0.85530  0.50000  0.29420  Biso   1.000  B 
  B315     1.0000 0.75800  0.50000  0.32050  Biso   1.000  B 
  F113     1.0000 0.77964  0.50111  0.40701  Biso   1.000  F 
  B316     1.0000 0.82050  0.50000  0.25800  Biso   1.000  B 
  F114     1.0000 0.90695  0.50457  0.27994  Biso   1.000  F 
  B317     1.0000 0.76930  0.50000  0.26930  Biso   1.000  B 
  B318     1.0000 0.73070  0.50000  0.23070  Biso   1.000  B 
  F115     1.0000 0.71156  0.52290  0.33730  Biso   1.000  F 
  B319     1.0000 0.67950  0.50000  0.24200  Biso   1.000  B 
  F116     1.0000 0.84088  0.51343  0.21052  Biso   1.000  F 
  B320     1.0000 0.74200  0.50000  0.17950  Biso   1.000  B 
  B321     1.0000 0.64470  0.50000  0.20580  Biso   1.000  B 
  F117     1.0000 0.66270  0.47710  0.28844  Biso   1.000  F 
  B322     1.0000 0.70580  0.50000  0.14470  Biso   1.000  B 
  F118     1.0000 0.78948  0.48657  0.15912  Biso   1.000  F 
  B323     1.0000 0.65650  0.50000  0.15650  Biso   1.000  B 
  B324     1.0000 0.61720  0.50000  0.11720  Biso   1.000  B 
  F119     1.0000 0.59298  0.49889  0.22036  Biso   1.000  F 
  F120     1.0000 0.72006  0.49543  0.09305  Biso   1.000  F 
  B325     1.0000 0.57190  0.50000  0.13260  Biso   1.000  B 
  B326     1.0000 0.63260  0.50000  0.07190  Biso   1.000  B 
  B327     1.0000 0.13260  0.50000  0.42810  Biso   1.000  B 
  B328     1.0000 0.11720  0.50000  0.38280  Biso   1.000  B 
  B329     1.0000 0.07190  0.50000  0.36740  Biso   1.000  B 
  B330     1.0000 0.15650  0.50000  0.34350  Biso   1.000  B 
  B331     1.0000 0.20580  0.50000  0.35530  Biso   1.000  B 
  B332     1.0000 0.14470  0.50000  0.29420  Biso   1.000  B 
  B333     1.0000 0.24200  0.50000  0.32050  Biso   1.000  B 
  F121     1.0000 0.22022  0.50016  0.40711  Biso   1.000  F 
  B334     1.0000 0.17950  0.50000  0.25800  Biso   1.000  B 
  F122     1.0000 0.09311  0.50505  0.27986  Biso   1.000  F 
  B335     1.0000 0.23070  0.50000  0.26930  Biso   1.000  B 
  B336     1.0000 0.26930  0.50000  0.23070  Biso   1.000  B 
  F123     1.0000 0.28990  0.50454  0.34303  Biso   1.000  F 
  B337     1.0000 0.32050  0.50000  0.24200  Biso   1.000  B 
  F124     1.0000 0.15879  0.51368  0.21130  Biso   1.000  F 
  B338     1.0000 0.25800  0.50000  0.17950  Biso   1.000  B 
  B339     1.0000 0.35530  0.50000  0.20580  Biso   1.000  B 
  F125     1.0000 0.34304  0.49546  0.28990  Biso   1.000  F 
  B340     1.0000 0.29420  0.50000  0.14470  Biso   1.000  B 
  F126     1.0000 0.21130  0.48632  0.15879  Biso   1.000  F 
  B341     1.0000 0.34350  0.50000  0.15650  Biso   1.000  B 
  B342     1.0000 0.38280  0.50000  0.11720  Biso   1.000  B 
  F127     1.0000 0.40711  0.49984  0.22022  Biso   1.000  F 
  F128     1.0000 0.27987  0.49495  0.09311  Biso   1.000  F 
  B343     1.0000 0.42810  0.50000  0.13260  Biso   1.000  B 
  B344     1.0000 0.36740  0.50000  0.07190  Biso   1.000  B 
  B345     1.0000 0.07190  0.63260  0.50000  Biso   1.000  B 
  B346     1.0000 0.11720  0.61720  0.50000  Biso   1.000  B 
  B347     1.0000 0.13260  0.57190  0.50000  Biso   1.000  B 
  B348     1.0000 0.15650  0.65650  0.50000  Biso   1.000  B 
  B349     1.0000 0.14470  0.70580  0.50000  Biso   1.000  B 
  B350     1.0000 0.20580  0.64470  0.50000  Biso   1.000  B 
  B351     1.0000 0.17950  0.74200  0.50000  Biso   1.000  B 
  F129     1.0000 0.09297  0.72032  0.49872  Biso   1.000  F 
  B352     1.0000 0.24200  0.67950  0.50000  Biso   1.000  B 
  F130     1.0000 0.22023  0.59308  0.49592  Biso   1.000  F 
  B353     1.0000 0.23070  0.73070  0.50000  Biso   1.000  B 
  B354     1.0000 0.26930  0.76930  0.50000  Biso   1.000  B 
  F131     1.0000 0.16404  0.78837  0.47549  Biso   1.000  F 
  B355     1.0000 0.25800  0.82050  0.50000  Biso   1.000  B 
  F132     1.0000 0.28796  0.66334  0.47543  Biso   1.000  F 
  B356     1.0000 0.32050  0.75800  0.50000  Biso   1.000  B 
  B357     1.0000 0.29420  0.85530  0.50000  Biso   1.000  B 
  F133     1.0000 0.21163  0.83596  0.52452  Biso   1.000  F 
  B358     1.0000 0.35530  0.79420  0.50000  Biso   1.000  B 
  F134     1.0000 0.33666  0.71204  0.52457  Biso   1.000  F 
  B359     1.0000 0.34350  0.84350  0.50000  Biso   1.000  B 
  B360     1.0000 0.38280  0.88280  0.50000  Biso   1.000  B 
  F135     1.0000 0.27968  0.90703  0.50130  Biso   1.000  F 
  F136     1.0000 0.40692  0.77977  0.50408  Biso   1.000  F 
  B361     1.0000 0.36740  0.92810  0.50000  Biso   1.000  B 
  B362     1.0000 0.42810  0.86740  0.50000  Biso   1.000  B 
  B363     1.0000 0.07190  0.36740  0.50000  Biso   1.000  B 
  B364     1.0000 0.11720  0.38280  0.50000  Biso   1.000  B 
  B365     1.0000 0.13260  0.42810  0.50000  Biso   1.000  B 
  B366     1.0000 0.15650  0.34350  0.50000  Biso   1.000  B 
  B367     1.0000 0.14470  0.29420  0.50000  Biso   1.000  B 
  B368     1.0000 0.20580  0.35530  0.50000  Biso   1.000  B 
  B369     1.0000 0.17950  0.25800  0.50000  Biso   1.000  B 
  F137     1.0000 0.09304  0.27994  0.50426  Biso   1.000  F 
  B370     1.0000 0.24200  0.32050  0.50000  Biso   1.000  B 
  F138     1.0000 0.22036  0.40702  0.50109  Biso   1.000  F 
  B371     1.0000 0.23070  0.26930  0.50000  Biso   1.000  B 
  B372     1.0000 0.26930  0.23070  0.50000  Biso   1.000  B 
  F139     1.0000 0.15950  0.21077  0.51395  Biso   1.000  F 
  B373     1.0000 0.25800  0.17950  0.50000  Biso   1.000  B 
  F140     1.0000 0.28849  0.33742  0.52268  Biso   1.000  F 
  B374     1.0000 0.32050  0.24200  0.50000  Biso   1.000  B 
  B375     1.0000 0.29420  0.14470  0.50000  Biso   1.000  B 
  F141     1.0000 0.21077  0.15950  0.48605  Biso   1.000  F 
  B376     1.0000 0.35530  0.20580  0.50000  Biso   1.000  B 
  F142     1.0000 0.33743  0.28849  0.47732  Biso   1.000  F 
  B377     1.0000 0.34350  0.15650  0.50000  Biso   1.000  B 
  B378     1.0000 0.38280  0.11720  0.50000  Biso   1.000  B 
  F143     1.0000 0.27994  0.09304  0.49573  Biso   1.000  F 
  F144     1.0000 0.40702  0.22036  0.49891  Biso   1.000  F 
  B379     1.0000 0.36740  0.07190  0.50000  Biso   1.000  B 
  B380     1.0000 0.42810  0.13260  0.50000  Biso   1.000  B 
  B381     1.0000 0.92810  0.36740  0.50000  Biso   1.000  B 
  B382     1.0000 0.88280  0.38280  0.50000  Biso   1.000  B 
  B383     1.0000 0.86740  0.42810  0.50000  Biso   1.000  B 
  B384     1.0000 0.84350  0.34350  0.50000  Biso   1.000  B 
  B385     1.0000 0.85530  0.29420  0.50000  Biso   1.000  B 
  B386     1.0000 0.79420  0.35530  0.50000  Biso   1.000  B 
  B387     1.0000 0.82050  0.25800  0.50000  Biso   1.000  B 
  F145     1.0000 0.90703  0.27968  0.50148  Biso   1.000  F 
  B388     1.0000 0.75800  0.32050  0.50000  Biso   1.000  B 
  F146     1.0000 0.77974  0.40693  0.50383  Biso   1.000  F 
  B389     1.0000 0.76930  0.26930  0.50000  Biso   1.000  B 
  B390     1.0000 0.73070  0.23070  0.50000  Biso   1.000  B 
  F147     1.0000 0.83617  0.21138  0.52418  Biso   1.000  F 
  B391     1.0000 0.74200  0.17950  0.50000  Biso   1.000  B 
  F148     1.0000 0.71260  0.33603  0.52596  Biso   1.000  F 
  B392     1.0000 0.67950  0.24200  0.50000  Biso   1.000  B 
  B393     1.0000 0.70580  0.14470  0.50000  Biso   1.000  B 
  F149     1.0000 0.78862  0.16383  0.47582  Biso   1.000  F 
  B394     1.0000 0.64470  0.20580  0.50000  Biso   1.000  B 
  F150     1.0000 0.66397  0.28740  0.47404  Biso   1.000  F 
  B395     1.0000 0.65650  0.15650  0.50000  Biso   1.000  B 
  B396     1.0000 0.61720  0.11720  0.50000  Biso   1.000  B 
  F151     1.0000 0.72033  0.09297  0.49853  Biso   1.000  F 
  F152     1.0000 0.59307  0.22026  0.49618  Biso   1.000  F 
  B397     1.0000 0.63260  0.07190  0.50000  Biso   1.000  B 
  B398     1.0000 0.57190  0.13260  0.50000  Biso   1.000  B 
  B399     1.0000 0.92810  0.63260  0.50000  Biso   1.000  B 
  B400     1.0000 0.88280  0.61720  0.50000  Biso   1.000  B 
  B401     1.0000 0.86740  0.57190  0.50000  Biso   1.000  B 
  B402     1.0000 0.84350  0.65650  0.50000  Biso   1.000  B 
  B403     1.0000 0.85530  0.70580  0.50000  Biso   1.000  B 
  B404     1.0000 0.79420  0.64470  0.50000  Biso   1.000  B 
  B405     1.0000 0.82050  0.74200  0.50000  Biso   1.000  B 
  F153     1.0000 0.90689  0.72013  0.49497  Biso   1.000  F 
  B406     1.0000 0.75800  0.67950  0.50000  Biso   1.000  B 
  F154     1.0000 0.77965  0.59298  0.49901  Biso   1.000  F 
  B407     1.0000 0.76930  0.73070  0.50000  Biso   1.000  B 
  B408     1.0000 0.73070  0.76930  0.50000  Biso   1.000  B 
  F155     1.0000 0.84123  0.78876  0.48637  Biso   1.000  F 
  B409     1.0000 0.74200  0.82050  0.50000  Biso   1.000  B 
  F156     1.0000 0.71127  0.66195  0.47848  Biso   1.000  F 
  B410     1.0000 0.67950  0.75800  0.50000  Biso   1.000  B 
  B411     1.0000 0.70580  0.85530  0.50000  Biso   1.000  B 
  F157     1.0000 0.78876  0.84123  0.51363  Biso   1.000  F 
  B412     1.0000 0.64470  0.79420  0.50000  Biso   1.000  B 
  F158     1.0000 0.66195  0.71127  0.52152  Biso   1.000  F 
  B413     1.0000 0.65650  0.84350  0.50000  Biso   1.000  B 
  B414     1.0000 0.61720  0.88280  0.50000  Biso   1.000  B 
  F159     1.0000 0.72013  0.90690  0.50503  Biso   1.000  F 
  F160     1.0000 0.59297  0.77965  0.50099  Biso   1.000  F 
  B415     1.0000 0.63260  0.92810  0.50000  Biso   1.000  B 
  B416     1.0000 0.57190  0.86740  0.50000  Biso   1.000  B 
  B417     1.0000 0.50000  0.07190  0.63260  Biso   1.000  B 
  B418     1.0000 0.50000  0.11720  0.61720  Biso   1.000  B 
  B419     1.0000 0.50000  0.13260  0.57190  Biso   1.000  B 
  B420     1.0000 0.50000  0.15650  0.65650  Biso   1.000  B 
  B421     1.0000 0.50000  0.14470  0.70580  Biso   1.000  B 
  B422     1.0000 0.50000  0.20580  0.64470  Biso   1.000  B 
  B423     1.0000 0.50000  0.17950  0.74200  Biso   1.000  B 
  F161     1.0000 0.50268  0.09298  0.72026  Biso   1.000  F 
  B424     1.0000 0.50000  0.24200  0.67950  Biso   1.000  B 
  F162     1.0000 0.50311  0.22034  0.59305  Biso   1.000  F 
  B425     1.0000 0.50000  0.23070  0.73070  Biso   1.000  B 
  B426     1.0000 0.50000  0.26930  0.76930  Biso   1.000  B 
  F163     1.0000 0.51995  0.16188  0.78876  Biso   1.000  F 
  B427     1.0000 0.50000  0.25800  0.82050  Biso   1.000  B 
  F164     1.0000 0.52836  0.28623  0.66573  Biso   1.000  F 
  B428     1.0000 0.50000  0.32050  0.75800  Biso   1.000  B 
  B429     1.0000 0.50000  0.29420  0.85530  Biso   1.000  B 
  F165     1.0000 0.48005  0.21124  0.83812  Biso   1.000  F 
  B430     1.0000 0.50000  0.35530  0.79420  Biso   1.000  B 
  F166     1.0000 0.47163  0.33427  0.71378  Biso   1.000  F 
  B431     1.0000 0.50000  0.34350  0.84350  Biso   1.000  B 
  B432     1.0000 0.50000  0.38280  0.88280  Biso   1.000  B 
  F167     1.0000 0.49731  0.27974  0.90702  Biso   1.000  F 
  F168     1.0000 0.49689  0.40695  0.77966  Biso   1.000  F 
  B433     1.0000 0.50000  0.36740  0.92810  Biso   1.000  B 
  B434     1.0000 0.50000  0.42810  0.86740  Biso   1.000  B 
  B435     1.0000 0.50000  0.07190  0.36740  Biso   1.000  B 
  B436     1.0000 0.50000  0.11720  0.38280  Biso   1.000  B 
  B437     1.0000 0.50000  0.13260  0.42810  Biso   1.000  B 
  B438     1.0000 0.50000  0.15650  0.34350  Biso   1.000  B 
  B439     1.0000 0.50000  0.14470  0.29420  Biso   1.000  B 
  B440     1.0000 0.50000  0.20580  0.35530  Biso   1.000  B 
  B441     1.0000 0.50000  0.17950  0.25800  Biso   1.000  B 
  F169     1.0000 0.50258  0.09298  0.27973  Biso   1.000  F 
  B442     1.0000 0.50000  0.24200  0.32050  Biso   1.000  B 
  F170     1.0000 0.50311  0.22034  0.40695  Biso   1.000  F 
  B443     1.0000 0.50000  0.23070  0.26930  Biso   1.000  B 
  B444     1.0000 0.50000  0.26930  0.23070  Biso   1.000  B 
  F171     1.0000 0.52051  0.16211  0.21114  Biso   1.000  F 
  B445     1.0000 0.50000  0.25800  0.17950  Biso   1.000  B 
  F172     1.0000 0.52836  0.28623  0.33428  Biso   1.000  F 
  B446     1.0000 0.50000  0.32050  0.24200  Biso   1.000  B 
  B447     1.0000 0.50000  0.29420  0.14470  Biso   1.000  B 
  F173     1.0000 0.47949  0.21114  0.16211  Biso   1.000  F 
  B448     1.0000 0.50000  0.35530  0.20580  Biso   1.000  B 
  F174     1.0000 0.47164  0.33428  0.28623  Biso   1.000  F 
  B449     1.0000 0.50000  0.34350  0.15650  Biso   1.000  B 
  B450     1.0000 0.50000  0.38280  0.11720  Biso   1.000  B 
  F175     1.0000 0.49742  0.27973  0.09298  Biso   1.000  F 
  F176     1.0000 0.49689  0.40695  0.22034  Biso   1.000  F 
  B451     1.0000 0.50000  0.36740  0.07190  Biso   1.000  B 
  B452     1.0000 0.50000  0.42810  0.13260  Biso   1.000  B 
  B453     1.0000 0.50000  0.92810  0.36740  Biso   1.000  B 
  B454     1.0000 0.50000  0.88280  0.38280  Biso   1.000  B 
  B455     1.0000 0.50000  0.86740  0.42810  Biso   1.000  B 
  B456     1.0000 0.50000  0.84350  0.34350  Biso   1.000  B 
  B457     1.0000 0.50000  0.85530  0.29420  Biso   1.000  B 
  B458     1.0000 0.50000  0.79420  0.35530  Biso   1.000  B 
  B459     1.0000 0.50000  0.82050  0.25800  Biso   1.000  B 
  F177     1.0000 0.49658  0.90698  0.27985  Biso   1.000  F 
  B460     1.0000 0.50000  0.75800  0.32050  Biso   1.000  B 
  F178     1.0000 0.49753  0.77960  0.40696  Biso   1.000  F 
  B461     1.0000 0.50000  0.76930  0.26930  Biso   1.000  B 
  B462     1.0000 0.50000  0.73070  0.23070  Biso   1.000  B 
  F179     1.0000 0.48322  0.83936  0.21162  Biso   1.000  F 
  B463     1.0000 0.50000  0.74200  0.17950  Biso   1.000  B 
  F180     1.0000 0.47104  0.71399  0.33341  Biso   1.000  F 
  B464     1.0000 0.50000  0.67950  0.24200  Biso   1.000  B 
  B465     1.0000 0.50000  0.70580  0.14470  Biso   1.000  B 
  F181     1.0000 0.51678  0.78838  0.16065  Biso   1.000  F 
  B466     1.0000 0.50000  0.64470  0.20580  Biso   1.000  B 
  F182     1.0000 0.52896  0.66659  0.28600  Biso   1.000  F 
  B467     1.0000 0.50000  0.65650  0.15650  Biso   1.000  B 
  B468     1.0000 0.50000  0.61720  0.11720  Biso   1.000  B 
  F183     1.0000 0.50345  0.72015  0.09302  Biso   1.000  F 
  F184     1.0000 0.50247  0.59304  0.22040  Biso   1.000  F 
  B469     1.0000 0.50000  0.63260  0.07190  Biso   1.000  B 
  B470     1.0000 0.50000  0.57190  0.13260  Biso   1.000  B 
  B471     1.0000 0.50000  0.92810  0.63260  Biso   1.000  B 
  B472     1.0000 0.50000  0.88280  0.61720  Biso   1.000  B 
  B473     1.0000 0.50000  0.86740  0.57190  Biso   1.000  B 
  B474     1.0000 0.50000  0.84350  0.65650  Biso   1.000  B 
  B475     1.0000 0.50000  0.85530  0.70580  Biso   1.000  B 
  B476     1.0000 0.50000  0.79420  0.64470  Biso   1.000  B 
  B477     1.0000 0.50000  0.82050  0.74200  Biso   1.000  B 
  F185     1.0000 0.49797  0.90703  0.72032  Biso   1.000  F 
  B478     1.0000 0.50000  0.75800  0.67950  Biso   1.000  B 
  F186     1.0000 0.49638  0.77972  0.59306  Biso   1.000  F 
  B479     1.0000 0.50000  0.76930  0.73070  Biso   1.000  B 
  B480     1.0000 0.50000  0.73070  0.76930  Biso   1.000  B 
  F187     1.0000 0.47741  0.83700  0.78905  Biso   1.000  F 
  B481     1.0000 0.50000  0.74200  0.82050  Biso   1.000  B 
  F188     1.0000 0.47316  0.71301  0.66450  Biso   1.000  F 
  B482     1.0000 0.50000  0.67950  0.75800  Biso   1.000  B 
  B483     1.0000 0.50000  0.70580  0.85530  Biso   1.000  B 
  F189     1.0000 0.52258  0.78905  0.83700  Biso   1.000  F 
  B484     1.0000 0.50000  0.64470  0.79420  Biso   1.000  B 
  F190     1.0000 0.52684  0.66449  0.71301  Biso   1.000  F 
  B485     1.0000 0.50000  0.65650  0.84350  Biso   1.000  B 
  B486     1.0000 0.50000  0.61720  0.88280  Biso   1.000  B 
  F191     1.0000 0.50204  0.72032  0.90703  Biso   1.000  F 
  F192     1.0000 0.50362  0.59306  0.77972  Biso   1.000  F 
  B487     1.0000 0.50000  0.63260  0.92810  Biso   1.000  B 
  B488     1.0000 0.50000  0.57190  0.86740  Biso   1.000  B 
