data_image0
_cell_length_a       26.896
_cell_length_b       26.896
_cell_length_c       26.896
_cell_angle_alpha    90
_cell_angle_beta     90
_cell_angle_gamma    90

_symmetry_space_group_name_H-M    "P 1"
_symmetry_int_tables_number       1

loop_
  _symmetry_equiv_pos_as_xyz
  'x, y, z'

loop_
  _atom_site_label
  _atom_site_occupancy
  _atom_site_fract_x
  _atom_site_fract_y
  _atom_site_fract_z
  _atom_site_thermal_displace_type
  _atom_site_B_iso_or_equiv
  _atom_site_type_symbol
  B1       1.0000 0.09204  0.00000  0.00000  Biso   1.000  B 
  B2       1.0000 0.90796  0.00000  0.00000  Biso   1.000  B 
  B3       1.0000 0.00000  0.09204  0.00000  Biso   1.000  B 
  B4       1.0000 0.00000  0.90796  0.00000  Biso   1.000  B 
  B5       1.0000 0.00000  0.00000  0.09204  Biso   1.000  B 
  B6       1.0000 0.00000  0.00000  0.90796  Biso   1.000  B 
  B7       1.0000 0.09204  0.50000  0.50000  Biso   1.000  B 
  B8       1.0000 0.90796  0.50000  0.50000  Biso   1.000  B 
  B9       1.0000 0.00000  0.59204  0.50000  Biso   1.000  B 
  B10      1.0000 0.00000  0.40796  0.50000  Biso   1.000  B 
  B11      1.0000 0.00000  0.50000  0.59204  Biso   1.000  B 
  B12      1.0000 0.00000  0.50000  0.40796  Biso   1.000  B 
  B13      1.0000 0.59204  0.00000  0.50000  Biso   1.000  B 
  B14      1.0000 0.40796  0.00000  0.50000  Biso   1.000  B 
  B15      1.0000 0.50000  0.09204  0.50000  Biso   1.000  B 
  B16      1.0000 0.50000  0.90796  0.50000  Biso   1.000  B 
  B17      1.0000 0.50000  0.00000  0.59204  Biso   1.000  B 
  B18      1.0000 0.50000  0.00000  0.40796  Biso   1.000  B 
  B19      1.0000 0.59204  0.50000  0.00000  Biso   1.000  B 
  B20      1.0000 0.40796  0.50000  0.00000  Biso   1.000  B 
  B21      1.0000 0.50000  0.59204  0.00000  Biso   1.000  B 
  B22      1.0000 0.50000  0.40796  0.00000  Biso   1.000  B 
  B23      1.0000 0.50000  0.50000  0.09204  Biso   1.000  B 
  B24      1.0000 0.50000  0.50000  0.90796  Biso   1.000  B 
  B25      1.0000 0.04540  0.04540  0.04540  Biso   1.000  B 
  B26      1.0000 0.95460  0.95460  0.04540  Biso   1.000  B 
  B27      1.0000 0.95460  0.04540  0.95460  Biso   1.000  B 
  B28      1.0000 0.04540  0.95460  0.95460  Biso   1.000  B 
  B29      1.0000 0.04540  0.04540  0.95460  Biso   1.000  B 
  B30      1.0000 0.95460  0.95460  0.95460  Biso   1.000  B 
  B31      1.0000 0.04540  0.95460  0.04540  Biso   1.000  B 
  B32      1.0000 0.95460  0.04540  0.04540  Biso   1.000  B 
  B33      1.0000 0.04540  0.54540  0.54540  Biso   1.000  B 
  B34      1.0000 0.95460  0.45460  0.54540  Biso   1.000  B 
  B35      1.0000 0.95460  0.54540  0.45460  Biso   1.000  B 
  B36      1.0000 0.04540  0.45460  0.45460  Biso   1.000  B 
  B37      1.0000 0.04540  0.54540  0.45460  Biso   1.000  B 
  B38      1.0000 0.95460  0.45460  0.45460  Biso   1.000  B 
  B39      1.0000 0.04540  0.45460  0.54540  Biso   1.000  B 
  B40      1.0000 0.95460  0.54540  0.54540  Biso   1.000  B 
  B41      1.0000 0.54540  0.04540  0.54540  Biso   1.000  B 
  B42      1.0000 0.45460  0.95460  0.54540  Biso   1.000  B 
  B43      1.0000 0.45460  0.04540  0.45460  Biso   1.000  B 
  B44      1.0000 0.54540  0.95460  0.45460  Biso   1.000  B 
  B45      1.0000 0.54540  0.04540  0.45460  Biso   1.000  B 
  B46      1.0000 0.45460  0.95460  0.45460  Biso   1.000  B 
  B47      1.0000 0.54540  0.95460  0.54540  Biso   1.000  B 
  B48      1.0000 0.45460  0.04540  0.54540  Biso   1.000  B 
  B49      1.0000 0.54540  0.54540  0.04540  Biso   1.000  B 
  B50      1.0000 0.45460  0.45460  0.04540  Biso   1.000  B 
  B51      1.0000 0.45460  0.54540  0.95460  Biso   1.000  B 
  B52      1.0000 0.54540  0.45460  0.95460  Biso   1.000  B 
  B53      1.0000 0.54540  0.54540  0.95460  Biso   1.000  B 
  B54      1.0000 0.45460  0.45460  0.95460  Biso   1.000  B 
  B55      1.0000 0.54540  0.45460  0.04540  Biso   1.000  B 
  B56      1.0000 0.45460  0.54540  0.04540  Biso   1.000  B 
  B57      1.0000 0.13260  0.00000  0.07190  Biso   1.000  B 
  B58      1.0000 0.11720  0.00000  0.11720  Biso   1.000  B 
  B59      1.0000 0.07190  0.00000  0.13260  Biso   1.000  B 
  B60      1.0000 0.15650  0.00000  0.15650  Biso   1.000  B 
  B61      1.0000 0.20580  0.00000  0.14470  Biso   1.000  B 
  B62      1.0000 0.14470  0.00000  0.20580  Biso   1.000  B 
  B63      1.0000 0.24200  0.00000  0.17950  Biso   1.000  B 
  B64      1.0000 0.21490  0.00000  0.11140  Biso   1.000  B 
  B65      1.0000 0.17950  0.00000  0.24200  Biso   1.000  B 
  B66      1.0000 0.11140  0.00000  0.21490  Biso   1.000  B 
  B67      1.0000 0.23070  0.00000  0.23070  Biso   1.000  B 
  B68      1.0000 0.26930  0.00000  0.26930  Biso   1.000  B 
  B69      1.0000 0.27510  0.00000  0.16950  Biso   1.000  B 
  B70      1.0000 0.32050  0.00000  0.25800  Biso   1.000  B 
  N1       1.0000 0.15941  0.00556  0.29330  Biso   1.000  N 
  B71      1.0000 0.25800  0.00000  0.32050  Biso   1.000  B 
  B72      1.0000 0.35530  0.00000  0.29420  Biso   1.000  B 
  N2       1.0000 0.33754  0.02707  0.21024  Biso   1.000  N 
  B73      1.0000 0.29420  0.00000  0.35530  Biso   1.000  B 
  B74      1.0000 0.22490  0.00000  0.33050  Biso   1.000  B 
  B75      1.0000 0.34350  0.00000  0.34350  Biso   1.000  B 
  B76      1.0000 0.38280  0.00000  0.38280  Biso   1.000  B 
  B77      1.0000 0.38860  0.00000  0.28510  Biso   1.000  B 
  B78      1.0000 0.28510  0.00000  0.38860  Biso   1.000  B 
  B79      1.0000 0.42810  0.00000  0.36740  Biso   1.000  B 
  B80      1.0000 0.36740  0.00000  0.42810  Biso   1.000  B 
  C1       1.0000 0.37723  0.00095  0.18220  Biso   1.000  C 
  C2       1.0000 0.13262  0.05349  0.29913  Biso   1.000  C 
  C3       1.0000 0.38849  0.02933  0.13267  Biso   1.000  C 
  C4       1.0000 0.16684  0.09863  0.29234  Biso   1.000  C 
  H1       1.0000 0.13430  0.97617  0.29914  Biso   1.000  H 
  H2       1.0000 0.34928  0.06300  0.21930  Biso   1.000  H 
  C5       1.0000 0.13906  0.14989  0.28937  Biso   1.000  C 
  H3       1.0000 0.09944  0.05581  0.27410  Biso   1.000  H 
  H4       1.0000 0.36550  0.96215  0.17410  Biso   1.000  H 
  H5       1.0000 0.10384  0.14941  0.31144  Biso   1.000  H 
  C6       1.0000 0.12722  0.16265  0.23438  Biso   1.000  C 
  H6       1.0000 0.16424  0.17987  0.30325  Biso   1.000  H 
  C7       1.0000 0.41264  0.07882  0.14727  Biso   1.000  C 
  H7       1.0000 0.38633  0.10520  0.16397  Biso   1.000  H 
  C8       1.0000 0.43807  0.10624  0.10526  Biso   1.000  C 
  H8       1.0000 0.44390  0.07102  0.17422  Biso   1.000  H 
  H9       1.0000 0.41238  0.99996  0.20519  Biso   1.000  H 
  H10      1.0000 0.11832  0.05592  0.33774  Biso   1.000  H 
  H11      1.0000 0.35552  0.03428  0.10957  Biso   1.000  H 
  H12      1.0000 0.41694  0.00959  0.11098  Biso   1.000  H 
  H13      1.0000 0.19194  0.09397  0.26017  Biso   1.000  H 
  H14      1.0000 0.19070  0.09825  0.32616  Biso   1.000  H 
  H15      1.0000 0.09747  0.13815  0.21994  Biso   1.000  H 
  H16      1.0000 0.16122  0.15696  0.21098  Biso   1.000  H 
  H17      1.0000 0.41954  0.10037  0.06929  Biso   1.000  H 
  H18      1.0000 0.47804  0.09459  0.10230  Biso   1.000  H 
  H19      1.0000 0.11571  0.20229  0.23187  Biso   1.000  H 
  H20      1.0000 0.43658  0.14583  0.11563  Biso   1.000  H 
  B81      1.0000 0.86740  0.00000  0.07190  Biso   1.000  B 
  B82      1.0000 0.88280  0.00000  0.11720  Biso   1.000  B 
  B83      1.0000 0.92810  0.00000  0.13260  Biso   1.000  B 
  B84      1.0000 0.84350  0.00000  0.15650  Biso   1.000  B 
  B85      1.0000 0.79420  0.00000  0.14470  Biso   1.000  B 
  B86      1.0000 0.85530  0.00000  0.20580  Biso   1.000  B 
  B87      1.0000 0.75800  0.00000  0.17950  Biso   1.000  B 
  B88      1.0000 0.78510  0.00000  0.11140  Biso   1.000  B 
  B89      1.0000 0.82050  0.00000  0.24200  Biso   1.000  B 
  B90      1.0000 0.88860  0.00000  0.21490  Biso   1.000  B 
  B91      1.0000 0.76930  0.00000  0.23070  Biso   1.000  B 
  B92      1.0000 0.73070  0.00000  0.26930  Biso   1.000  B 
  B93      1.0000 0.72490  0.00000  0.16950  Biso   1.000  B 
  B94      1.0000 0.67950  0.00000  0.25800  Biso   1.000  B 
  N3       1.0000 0.84059  0.99443  0.29330  Biso   1.000  N 
  B95      1.0000 0.74200  0.00000  0.32050  Biso   1.000  B 
  B96      1.0000 0.64470  0.00000  0.29420  Biso   1.000  B 
  N4       1.0000 0.66246  0.97293  0.21024  Biso   1.000  N 
  B97      1.0000 0.70580  0.00000  0.35530  Biso   1.000  B 
  B98      1.0000 0.77510  0.00000  0.33050  Biso   1.000  B 
  B99      1.0000 0.65650  0.00000  0.34350  Biso   1.000  B 
  B100     1.0000 0.61720  0.00000  0.38280  Biso   1.000  B 
  B101     1.0000 0.61140  0.00000  0.28510  Biso   1.000  B 
  B102     1.0000 0.71490  0.00000  0.38860  Biso   1.000  B 
  B103     1.0000 0.57190  0.00000  0.36740  Biso   1.000  B 
  B104     1.0000 0.63260  0.00000  0.42810  Biso   1.000  B 
  C9       1.0000 0.62277  0.99905  0.18220  Biso   1.000  C 
  C10      1.0000 0.86739  0.94651  0.29913  Biso   1.000  C 
  C11      1.0000 0.61151  0.97067  0.13267  Biso   1.000  C 
  C12      1.0000 0.83316  0.90136  0.29235  Biso   1.000  C 
  H21      1.0000 0.86570  0.02383  0.29914  Biso   1.000  H 
  H22      1.0000 0.65073  0.93700  0.21930  Biso   1.000  H 
  C13      1.0000 0.86094  0.85010  0.28937  Biso   1.000  C 
  H23      1.0000 0.90056  0.94419  0.27410  Biso   1.000  H 
  H24      1.0000 0.63450  0.03785  0.17410  Biso   1.000  H 
  H25      1.0000 0.89617  0.85058  0.31143  Biso   1.000  H 
  C14      1.0000 0.87278  0.83735  0.23437  Biso   1.000  C 
  H26      1.0000 0.83576  0.82013  0.30324  Biso   1.000  H 
  C15      1.0000 0.58735  0.92119  0.14727  Biso   1.000  C 
  H27      1.0000 0.61365  0.89481  0.16397  Biso   1.000  H 
  C16      1.0000 0.56192  0.89377  0.10525  Biso   1.000  C 
  H28      1.0000 0.55608  0.92900  0.17421  Biso   1.000  H 
  H29      1.0000 0.58762  0.00004  0.20519  Biso   1.000  H 
  H30      1.0000 0.88168  0.94408  0.33774  Biso   1.000  H 
  H31      1.0000 0.64448  0.96571  0.10957  Biso   1.000  H 
  H32      1.0000 0.58307  0.99041  0.11097  Biso   1.000  H 
  H33      1.0000 0.80806  0.90602  0.26018  Biso   1.000  H 
  H34      1.0000 0.80931  0.90174  0.32616  Biso   1.000  H 
  H35      1.0000 0.90253  0.86186  0.21993  Biso   1.000  H 
  H36      1.0000 0.83878  0.84305  0.21098  Biso   1.000  H 
  H37      1.0000 0.58044  0.89965  0.06928  Biso   1.000  H 
  H38      1.0000 0.52194  0.90542  0.10230  Biso   1.000  H 
  H39      1.0000 0.88429  0.79771  0.23185  Biso   1.000  H 
  H40      1.0000 0.56342  0.85418  0.11561  Biso   1.000  H 
  B105     1.0000 0.86740  0.00000  0.92810  Biso   1.000  B 
  B106     1.0000 0.88280  0.00000  0.88280  Biso   1.000  B 
  B107     1.0000 0.92810  0.00000  0.86740  Biso   1.000  B 
  B108     1.0000 0.84350  0.00000  0.84350  Biso   1.000  B 
  B109     1.0000 0.79420  0.00000  0.85530  Biso   1.000  B 
  B110     1.0000 0.85530  0.00000  0.79420  Biso   1.000  B 
  B111     1.0000 0.75800  0.00000  0.82050  Biso   1.000  B 
  B112     1.0000 0.78510  0.00000  0.88860  Biso   1.000  B 
  B113     1.0000 0.82050  0.00000  0.75800  Biso   1.000  B 
  B114     1.0000 0.88860  0.00000  0.78510  Biso   1.000  B 
  B115     1.0000 0.76930  0.00000  0.76930  Biso   1.000  B 
  B116     1.0000 0.73070  0.00000  0.73070  Biso   1.000  B 
  B117     1.0000 0.72490  0.00000  0.83050  Biso   1.000  B 
  B118     1.0000 0.67950  0.00000  0.74200  Biso   1.000  B 
  N5       1.0000 0.84059  0.00555  0.70670  Biso   1.000  N 
  B119     1.0000 0.74200  0.00000  0.67950  Biso   1.000  B 
  B120     1.0000 0.64470  0.00000  0.70580  Biso   1.000  B 
  N6       1.0000 0.66246  0.02707  0.78976  Biso   1.000  N 
  B121     1.0000 0.70580  0.00000  0.64470  Biso   1.000  B 
  B122     1.0000 0.77510  0.00000  0.66950  Biso   1.000  B 
  B123     1.0000 0.65650  0.00000  0.65650  Biso   1.000  B 
  B124     1.0000 0.61720  0.00000  0.61720  Biso   1.000  B 
  B125     1.0000 0.61140  0.00000  0.71490  Biso   1.000  B 
  B126     1.0000 0.71490  0.00000  0.61140  Biso   1.000  B 
  B127     1.0000 0.57190  0.00000  0.63260  Biso   1.000  B 
  B128     1.0000 0.63260  0.00000  0.57190  Biso   1.000  B 
  C17      1.0000 0.62278  0.00094  0.81780  Biso   1.000  C 
  C18      1.0000 0.86740  0.05347  0.70086  Biso   1.000  C 
  C19      1.0000 0.61151  0.02932  0.86734  Biso   1.000  C 
  C20      1.0000 0.83320  0.09863  0.70764  Biso   1.000  C 
  H41      1.0000 0.86570  0.97615  0.70087  Biso   1.000  H 
  H42      1.0000 0.65071  0.06300  0.78070  Biso   1.000  H 
  C21      1.0000 0.86099  0.14988  0.71070  Biso   1.000  C 
  H43      1.0000 0.90058  0.05578  0.72588  Biso   1.000  H 
  H44      1.0000 0.63452  0.96215  0.82590  Biso   1.000  H 
  H45      1.0000 0.89624  0.14941  0.68867  Biso   1.000  H 
  C22      1.0000 0.87279  0.16257  0.76573  Biso   1.000  C 
  H46      1.0000 0.83583  0.17988  0.69683  Biso   1.000  H 
  C23      1.0000 0.58730  0.07877  0.85274  Biso   1.000  C 
  H47      1.0000 0.61357  0.10515  0.83601  Biso   1.000  H 
  C24      1.0000 0.56185  0.10618  0.89476  Biso   1.000  C 
  H48      1.0000 0.55603  0.07093  0.82582  Biso   1.000  H 
  H49      1.0000 0.58763  0.99994  0.79481  Biso   1.000  H 
  H50      1.0000 0.88169  0.05589  0.66225  Biso   1.000  H 
  H51      1.0000 0.64449  0.03430  0.89042  Biso   1.000  H 
  H52      1.0000 0.58309  0.00955  0.88904  Biso   1.000  H 
  H53      1.0000 0.80804  0.09396  0.73976  Biso   1.000  H 
  H54      1.0000 0.80939  0.09831  0.67378  Biso   1.000  H 
  H55      1.0000 0.90253  0.13805  0.78014  Biso   1.000  H 
  H56      1.0000 0.83876  0.15682  0.78907  Biso   1.000  H 
  H57      1.0000 0.58032  0.10025  0.93075  Biso   1.000  H 
  H58      1.0000 0.52186  0.09457  0.89765  Biso   1.000  H 
  H59      1.0000 0.88428  0.20221  0.76834  Biso   1.000  H 
  H60      1.0000 0.56341  0.14579  0.88444  Biso   1.000  H 
  B129     1.0000 0.13260  0.00000  0.92810  Biso   1.000  B 
  B130     1.0000 0.11720  0.00000  0.88280  Biso   1.000  B 
  B131     1.0000 0.07190  0.00000  0.86740  Biso   1.000  B 
  B132     1.0000 0.15650  0.00000  0.84350  Biso   1.000  B 
  B133     1.0000 0.20580  0.00000  0.85530  Biso   1.000  B 
  B134     1.0000 0.14470  0.00000  0.79420  Biso   1.000  B 
  B135     1.0000 0.24200  0.00000  0.82050  Biso   1.000  B 
  B136     1.0000 0.21490  0.00000  0.88860  Biso   1.000  B 
  B137     1.0000 0.17950  0.00000  0.75800  Biso   1.000  B 
  B138     1.0000 0.11140  0.00000  0.78510  Biso   1.000  B 
  B139     1.0000 0.23070  0.00000  0.76930  Biso   1.000  B 
  B140     1.0000 0.26930  0.00000  0.73070  Biso   1.000  B 
  B141     1.0000 0.27510  0.00000  0.83050  Biso   1.000  B 
  B142     1.0000 0.32050  0.00000  0.74200  Biso   1.000  B 
  N7       1.0000 0.15941  0.99445  0.70670  Biso   1.000  N 
  B143     1.0000 0.25800  0.00000  0.67950  Biso   1.000  B 
  B144     1.0000 0.35530  0.00000  0.70580  Biso   1.000  B 
  N8       1.0000 0.33754  0.97293  0.78976  Biso   1.000  N 
  B145     1.0000 0.29420  0.00000  0.64470  Biso   1.000  B 
  B146     1.0000 0.22490  0.00000  0.66950  Biso   1.000  B 
  B147     1.0000 0.34350  0.00000  0.65650  Biso   1.000  B 
  B148     1.0000 0.38280  0.00000  0.61720  Biso   1.000  B 
  B149     1.0000 0.38860  0.00000  0.71490  Biso   1.000  B 
  B150     1.0000 0.28510  0.00000  0.61140  Biso   1.000  B 
  B151     1.0000 0.42810  0.00000  0.63260  Biso   1.000  B 
  B152     1.0000 0.36740  0.00000  0.57190  Biso   1.000  B 
  C25      1.0000 0.37722  0.99906  0.81780  Biso   1.000  C 
  C26      1.0000 0.13260  0.94652  0.70087  Biso   1.000  C 
  C27      1.0000 0.38849  0.97068  0.86733  Biso   1.000  C 
  C28      1.0000 0.16681  0.90136  0.70764  Biso   1.000  C 
  H61      1.0000 0.13430  0.02385  0.70087  Biso   1.000  H 
  H62      1.0000 0.34928  0.93700  0.78070  Biso   1.000  H 
  C29      1.0000 0.13902  0.85012  0.71069  Biso   1.000  C 
  H63      1.0000 0.09942  0.94421  0.72588  Biso   1.000  H 
  H64      1.0000 0.36549  0.03785  0.82590  Biso   1.000  H 
  H65      1.0000 0.10378  0.85059  0.68865  Biso   1.000  H 
  C30      1.0000 0.12721  0.83741  0.76571  Biso   1.000  C 
  H66      1.0000 0.16418  0.82012  0.69681  Biso   1.000  H 
  C31      1.0000 0.41269  0.92122  0.85274  Biso   1.000  C 
  H67      1.0000 0.38642  0.89484  0.83601  Biso   1.000  H 
  C32      1.0000 0.43814  0.89381  0.89476  Biso   1.000  C 
  H68      1.0000 0.44397  0.92906  0.82582  Biso   1.000  H 
  H69      1.0000 0.41237  0.00005  0.79481  Biso   1.000  H 
  H70      1.0000 0.11831  0.94411  0.66225  Biso   1.000  H 
  H71      1.0000 0.35551  0.96570  0.89042  Biso   1.000  H 
  H72      1.0000 0.41691  0.99044  0.88904  Biso   1.000  H 
  H73      1.0000 0.19195  0.90603  0.73978  Biso   1.000  H 
  H74      1.0000 0.19062  0.90170  0.67380  Biso   1.000  H 
  H75      1.0000 0.09747  0.86193  0.78013  Biso   1.000  H 
  H76      1.0000 0.16124  0.84316  0.78906  Biso   1.000  H 
  H77      1.0000 0.41966  0.89973  0.93074  Biso   1.000  H 
  H78      1.0000 0.47812  0.90542  0.89766  Biso   1.000  H 
  H79      1.0000 0.11572  0.79777  0.76831  Biso   1.000  H 
  H80      1.0000 0.43659  0.85421  0.88443  Biso   1.000  H 
  B153     1.0000 0.07190  0.13260  0.00000  Biso   1.000  B 
  B154     1.0000 0.11720  0.11720  0.00000  Biso   1.000  B 
  B155     1.0000 0.13260  0.07190  0.00000  Biso   1.000  B 
  B156     1.0000 0.15650  0.15650  0.00000  Biso   1.000  B 
  B157     1.0000 0.14470  0.20580  0.00000  Biso   1.000  B 
  B158     1.0000 0.20580  0.14470  0.00000  Biso   1.000  B 
  B159     1.0000 0.17950  0.24200  0.00000  Biso   1.000  B 
  B160     1.0000 0.11140  0.21490  0.00000  Biso   1.000  B 
  B161     1.0000 0.24200  0.17950  0.00000  Biso   1.000  B 
  B162     1.0000 0.21490  0.11140  0.00000  Biso   1.000  B 
  B163     1.0000 0.23070  0.23070  0.00000  Biso   1.000  B 
  B164     1.0000 0.26930  0.26930  0.00000  Biso   1.000  B 
  B165     1.0000 0.16950  0.27510  0.00000  Biso   1.000  B 
  B166     1.0000 0.25800  0.32050  0.00000  Biso   1.000  B 
  N9       1.0000 0.29076  0.16175  0.02579  Biso   1.000  N 
  B167     1.0000 0.32050  0.25800  0.00000  Biso   1.000  B 
  B168     1.0000 0.29420  0.35530  0.00000  Biso   1.000  B 
  N10      1.0000 0.20628  0.34140  0.99380  Biso   1.000  N 
  B169     1.0000 0.35530  0.29420  0.00000  Biso   1.000  B 
  B170     1.0000 0.33050  0.22490  0.00000  Biso   1.000  B 
  B171     1.0000 0.34350  0.34350  0.00000  Biso   1.000  B 
  B172     1.0000 0.38280  0.38280  0.00000  Biso   1.000  B 
  B173     1.0000 0.28510  0.38860  0.00000  Biso   1.000  B 
  B174     1.0000 0.38860  0.28510  0.00000  Biso   1.000  B 
  B175     1.0000 0.36740  0.42810  0.00000  Biso   1.000  B 
  B176     1.0000 0.42810  0.36740  0.00000  Biso   1.000  B 
  C33      1.0000 0.19812  0.35462  0.94128  Biso   1.000  C 
  C34      1.0000 0.28737  0.14688  0.07932  Biso   1.000  C 
  C35      1.0000 0.14221  0.34927  0.93110  Biso   1.000  C 
  C36      1.0000 0.31989  0.18033  0.11300  Biso   1.000  C 
  H81      1.0000 0.30631  0.13228  0.00525  Biso   1.000  H 
  H82      1.0000 0.20420  0.37455  0.01440  Biso   1.000  H 
  C37      1.0000 0.30677  0.18138  0.16954  Biso   1.000  C 
  H83      1.0000 0.24848  0.15098  0.09330  Biso   1.000  H 
  H84      1.0000 0.22144  0.32965  0.91717  Biso   1.000  H 
  H85      1.0000 0.27651  0.15531  0.17798  Biso   1.000  H 
  C38      1.0000 0.29099  0.23274  0.18469  Biso   1.000  C 
  H86      1.0000 0.33954  0.17227  0.19349  Biso   1.000  H 
  C39      1.0000 0.13629  0.34148  0.87478  Biso   1.000  C 
  H87      1.0000 0.15091  0.30293  0.86748  Biso   1.000  H 
  C40      1.0000 0.16754  0.37855  0.84251  Biso   1.000  C 
  H88      1.0000 0.09545  0.34134  0.86519  Biso   1.000  H 
  H89      1.0000 0.21039  0.39365  0.93445  Biso   1.000  H 
  H90      1.0000 0.29984  0.10751  0.08473  Biso   1.000  H 
  H91      1.0000 0.12335  0.38281  0.94563  Biso   1.000  H 
  H92      1.0000 0.12722  0.31651  0.95001  Biso   1.000  H 
  H93      1.0000 0.32154  0.21859  0.09734  Biso   1.000  H 
  H94      1.0000 0.35807  0.16566  0.11090  Biso   1.000  H 
  H95      1.0000 0.28148  0.23243  0.22477  Biso   1.000  H 
  H96      1.0000 0.25790  0.24330  0.16293  Biso   1.000  H 
  H97      1.0000 0.15770  0.37471  0.80233  Biso   1.000  H 
  H98      1.0000 0.20887  0.37042  0.84385  Biso   1.000  H 
  H99      1.0000 0.32183  0.25988  0.17935  Biso   1.000  H 
  H100     1.0000 0.15937  0.41798  0.85199  Biso   1.000  H 
  B177     1.0000 0.07190  0.86740  0.00000  Biso   1.000  B 
  B178     1.0000 0.11720  0.88280  0.00000  Biso   1.000  B 
  B179     1.0000 0.13260  0.92810  0.00000  Biso   1.000  B 
  B180     1.0000 0.15650  0.84350  0.00000  Biso   1.000  B 
  B181     1.0000 0.14470  0.79420  0.00000  Biso   1.000  B 
  B182     1.0000 0.20580  0.85530  0.00000  Biso   1.000  B 
  B183     1.0000 0.17950  0.75800  0.00000  Biso   1.000  B 
  B184     1.0000 0.11140  0.78510  0.00000  Biso   1.000  B 
  B185     1.0000 0.24200  0.82050  0.00000  Biso   1.000  B 
  B186     1.0000 0.21490  0.88860  0.00000  Biso   1.000  B 
  B187     1.0000 0.23070  0.76930  0.00000  Biso   1.000  B 
  B188     1.0000 0.26930  0.73070  0.00000  Biso   1.000  B 
  B189     1.0000 0.16950  0.72490  0.00000  Biso   1.000  B 
  B190     1.0000 0.25800  0.67950  0.00000  Biso   1.000  B 
  N11      1.0000 0.29079  0.83828  0.97429  Biso   1.000  N 
  B191     1.0000 0.32050  0.74200  0.00000  Biso   1.000  B 
  B192     1.0000 0.29420  0.64470  0.00000  Biso   1.000  B 
  N12      1.0000 0.20622  0.65850  0.00603  Biso   1.000  N 
  B193     1.0000 0.35530  0.70580  0.00000  Biso   1.000  B 
  B194     1.0000 0.33050  0.77510  0.00000  Biso   1.000  B 
  B195     1.0000 0.34350  0.65650  0.00000  Biso   1.000  B 
  B196     1.0000 0.38280  0.61720  0.00000  Biso   1.000  B 
  B197     1.0000 0.28510  0.61140  0.00000  Biso   1.000  B 
  B198     1.0000 0.38860  0.71490  0.00000  Biso   1.000  B 
  B199     1.0000 0.36740  0.57190  0.00000  Biso   1.000  B 
  B200     1.0000 0.42810  0.63260  0.00000  Biso   1.000  B 
  C41      1.0000 0.19789  0.64485  0.05839  Biso   1.000  C 
  C42      1.0000 0.28741  0.85331  0.92081  Biso   1.000  C 
  C43      1.0000 0.14198  0.65040  0.06846  Biso   1.000  C 
  C44      1.0000 0.31983  0.81991  0.88700  Biso   1.000  C 
  H101     1.0000 0.30633  0.86769  0.99492  Biso   1.000  H 
  H102     1.0000 0.20419  0.62546  0.98521  Biso   1.000  H 
  C45      1.0000 0.30662  0.81905  0.83050  Biso   1.000  C 
  H103     1.0000 0.24850  0.84934  0.90683  Biso   1.000  H 
  H104     1.0000 0.22113  0.66974  0.08265  Biso   1.000  H 
  H105     1.0000 0.27591  0.84466  0.82228  Biso   1.000  H 
  C46      1.0000 0.29175  0.76750  0.81503  Biso   1.000  C 
  H106     1.0000 0.33919  0.82888  0.80655  Biso   1.000  H 
  C47      1.0000 0.13612  0.65887  0.12465  Biso   1.000  C 
  H107     1.0000 0.15096  0.69743  0.13139  Biso   1.000  H 
  C48      1.0000 0.16726  0.62203  0.15737  Biso   1.000  C 
  H108     1.0000 0.09528  0.65943  0.13425  Biso   1.000  H 
  H109     1.0000 0.21014  0.60580  0.06513  Biso   1.000  H 
  H110     1.0000 0.29997  0.89267  0.91552  Biso   1.000  H 
  H111     1.0000 0.12303  0.61677  0.05419  Biso   1.000  H 
  H112     1.0000 0.12700  0.68297  0.04925  Biso   1.000  H 
  H113     1.0000 0.32148  0.78161  0.90255  Biso   1.000  H 
  H114     1.0000 0.35803  0.83455  0.88910  Biso   1.000  H 
  H115     1.0000 0.28148  0.76813  0.77515  Biso   1.000  H 
  H116     1.0000 0.25924  0.75600  0.83717  Biso   1.000  H 
  H117     1.0000 0.15808  0.62720  0.19754  Biso   1.000  H 
  H118     1.0000 0.20874  0.62920  0.15532  Biso   1.000  H 
  H119     1.0000 0.32322  0.74089  0.81951  Biso   1.000  H 
  H120     1.0000 0.15815  0.58254  0.14903  Biso   1.000  H 
  B201     1.0000 0.92810  0.86740  0.00000  Biso   1.000  B 
  B202     1.0000 0.88280  0.88280  0.00000  Biso   1.000  B 
  B203     1.0000 0.86740  0.92810  0.00000  Biso   1.000  B 
  B204     1.0000 0.84350  0.84350  0.00000  Biso   1.000  B 
  B205     1.0000 0.85530  0.79420  0.00000  Biso   1.000  B 
  B206     1.0000 0.79420  0.85530  0.00000  Biso   1.000  B 
  B207     1.0000 0.82050  0.75800  0.00000  Biso   1.000  B 
  B208     1.0000 0.88860  0.78510  0.00000  Biso   1.000  B 
  B209     1.0000 0.75800  0.82050  0.00000  Biso   1.000  B 
  B210     1.0000 0.78510  0.88860  0.00000  Biso   1.000  B 
  B211     1.0000 0.76930  0.76930  0.00000  Biso   1.000  B 
  B212     1.0000 0.73070  0.73070  0.00000  Biso   1.000  B 
  B213     1.0000 0.83050  0.72490  0.00000  Biso   1.000  B 
  B214     1.0000 0.74200  0.67950  0.00000  Biso   1.000  B 
  N13      1.0000 0.70923  0.83825  0.02578  Biso   1.000  N 
  B215     1.0000 0.67950  0.74200  0.00000  Biso   1.000  B 
  B216     1.0000 0.70580  0.64470  0.00000  Biso   1.000  B 
  N14      1.0000 0.79372  0.65859  0.99376  Biso   1.000  N 
  B217     1.0000 0.64470  0.70580  0.00000  Biso   1.000  B 
  B218     1.0000 0.66950  0.77510  0.00000  Biso   1.000  B 
  B219     1.0000 0.65650  0.65650  0.00000  Biso   1.000  B 
  B220     1.0000 0.61720  0.61720  0.00000  Biso   1.000  B 
  B221     1.0000 0.71490  0.61140  0.00000  Biso   1.000  B 
  B222     1.0000 0.61140  0.71490  0.00000  Biso   1.000  B 
  B223     1.0000 0.63260  0.57190  0.00000  Biso   1.000  B 
  B224     1.0000 0.57190  0.63260  0.00000  Biso   1.000  B 
  C49      1.0000 0.80192  0.64520  0.94128  Biso   1.000  C 
  C50      1.0000 0.71262  0.85315  0.07930  Biso   1.000  C 
  C51      1.0000 0.85780  0.65085  0.93106  Biso   1.000  C 
  C52      1.0000 0.68012  0.81970  0.11300  Biso   1.000  C 
  H121     1.0000 0.69369  0.86772  0.00522  Biso   1.000  H 
  H122     1.0000 0.79587  0.62552  0.01448  Biso   1.000  H 
  C53      1.0000 0.69325  0.81869  0.16953  Biso   1.000  C 
  H123     1.0000 0.75151  0.84907  0.09328  Biso   1.000  H 
  H124     1.0000 0.77841  0.66996  0.91713  Biso   1.000  H 
  H125     1.0000 0.72358  0.84469  0.17794  Biso   1.000  H 
  C54      1.0000 0.70888  0.76730  0.18474  Biso   1.000  C 
  H126     1.0000 0.66051  0.82792  0.19348  Biso   1.000  H 
  C55      1.0000 0.86365  0.65863  0.87475  Biso   1.000  C 
  H127     1.0000 0.84875  0.69709  0.86747  Biso   1.000  H 
  C56      1.0000 0.83261  0.62134  0.84253  Biso   1.000  C 
  H128     1.0000 0.90447  0.65905  0.86512  Biso   1.000  H 
  H129     1.0000 0.78987  0.60609  0.93459  Biso   1.000  H 
  H130     1.0000 0.70013  0.89252  0.08469  Biso   1.000  H 
  H131     1.0000 0.87688  0.61743  0.94558  Biso   1.000  H 
  H132     1.0000 0.87265  0.68369  0.94991  Biso   1.000  H 
  H133     1.0000 0.67848  0.78144  0.09736  Biso   1.000  H 
  H134     1.0000 0.64193  0.83437  0.11089  Biso   1.000  H 
  H135     1.0000 0.71852  0.76767  0.22479  Biso   1.000  H 
  H136     1.0000 0.74187  0.75658  0.16291  Biso   1.000  H 
  H137     1.0000 0.84214  0.62548  0.80232  Biso   1.000  H 
  H138     1.0000 0.79119  0.62895  0.84413  Biso   1.000  H 
  H139     1.0000 0.67794  0.74025  0.17955  Biso   1.000  H 
  H140     1.0000 0.84130  0.58196  0.85181  Biso   1.000  H 
  B225     1.0000 0.92810  0.13260  0.00000  Biso   1.000  B 
  B226     1.0000 0.88280  0.11720  0.00000  Biso   1.000  B 
  B227     1.0000 0.86740  0.07190  0.00000  Biso   1.000  B 
  B228     1.0000 0.84350  0.15650  0.00000  Biso   1.000  B 
  B229     1.0000 0.85530  0.20580  0.00000  Biso   1.000  B 
  B230     1.0000 0.79420  0.14470  0.00000  Biso   1.000  B 
  B231     1.0000 0.82050  0.24200  0.00000  Biso   1.000  B 
  B232     1.0000 0.88860  0.21490  0.00000  Biso   1.000  B 
  B233     1.0000 0.75800  0.17950  0.00000  Biso   1.000  B 
  B234     1.0000 0.78510  0.11140  0.00000  Biso   1.000  B 
  B235     1.0000 0.76930  0.23070  0.00000  Biso   1.000  B 
  B236     1.0000 0.73070  0.26930  0.00000  Biso   1.000  B 
  B237     1.0000 0.83050  0.27510  0.00000  Biso   1.000  B 
  B238     1.0000 0.74200  0.32050  0.00000  Biso   1.000  B 
  N15      1.0000 0.70921  0.16172  0.97430  Biso   1.000  N 
  B239     1.0000 0.67950  0.25800  0.00000  Biso   1.000  B 
  B240     1.0000 0.70580  0.35530  0.00000  Biso   1.000  B 
  N16      1.0000 0.79379  0.34151  0.00602  Biso   1.000  N 
  B241     1.0000 0.64470  0.29420  0.00000  Biso   1.000  B 
  B242     1.0000 0.66950  0.22490  0.00000  Biso   1.000  B 
  B243     1.0000 0.65650  0.34350  0.00000  Biso   1.000  B 
  B244     1.0000 0.61720  0.38280  0.00000  Biso   1.000  B 
  B245     1.0000 0.71490  0.38860  0.00000  Biso   1.000  B 
  B246     1.0000 0.61140  0.28510  0.00000  Biso   1.000  B 
  B247     1.0000 0.63260  0.42810  0.00000  Biso   1.000  B 
  B248     1.0000 0.57190  0.36740  0.00000  Biso   1.000  B 
  C57      1.0000 0.80216  0.35527  0.05835  Biso   1.000  C 
  C58      1.0000 0.71259  0.14666  0.92083  Biso   1.000  C 
  C59      1.0000 0.85806  0.34960  0.06841  Biso   1.000  C 
  C60      1.0000 0.68018  0.18004  0.88700  Biso   1.000  C 
  H141     1.0000 0.69367  0.13231  0.99495  Biso   1.000  H 
  H142     1.0000 0.79584  0.37452  0.98515  Biso   1.000  H 
  C61      1.0000 0.69342  0.18089  0.83051  Biso   1.000  C 
  H143     1.0000 0.75150  0.15061  0.90685  Biso   1.000  H 
  H144     1.0000 0.77888  0.33044  0.08263  Biso   1.000  H 
  H145     1.0000 0.72423  0.15539  0.82233  Biso   1.000  H 
  C62      1.0000 0.70810  0.23249  0.81499  Biso   1.000  C 
  H146     1.0000 0.66090  0.17092  0.80655  Biso   1.000  H 
  C63      1.0000 0.86390  0.34105  0.12458  Biso   1.000  C 
  H147     1.0000 0.84894  0.30252  0.13125  Biso   1.000  H 
  C64      1.0000 0.83286  0.37794  0.15733  Biso   1.000  C 
  H148     1.0000 0.90474  0.34035  0.13419  Biso   1.000  H 
  H149     1.0000 0.78997  0.39434  0.06505  Biso   1.000  H 
  H150     1.0000 0.70001  0.10729  0.91556  Biso   1.000  H 
  H151     1.0000 0.87709  0.38319  0.05416  Biso   1.000  H 
  H152     1.0000 0.87298  0.31702  0.04919  Biso   1.000  H 
  H153     1.0000 0.67851  0.21835  0.90254  Biso   1.000  H 
  H154     1.0000 0.64198  0.16540  0.88908  Biso   1.000  H 
  H155     1.0000 0.71851  0.23181  0.77515  Biso   1.000  H 
  H156     1.0000 0.74049  0.24417  0.83721  Biso   1.000  H 
  H157     1.0000 0.84186  0.37252  0.19751  Biso   1.000  H 
  H158     1.0000 0.79134  0.37108  0.15513  Biso   1.000  H 
  H159     1.0000 0.67650  0.25898  0.81932  Biso   1.000  H 
  H160     1.0000 0.84226  0.41741  0.14921  Biso   1.000  H 
  B249     1.0000 0.00000  0.07190  0.13260  Biso   1.000  B 
  B250     1.0000 0.00000  0.11720  0.11720  Biso   1.000  B 
  B251     1.0000 0.00000  0.13260  0.07190  Biso   1.000  B 
  B252     1.0000 0.00000  0.15650  0.15650  Biso   1.000  B 
  B253     1.0000 0.00000  0.14470  0.20580  Biso   1.000  B 
  B254     1.0000 0.00000  0.20580  0.14470  Biso   1.000  B 
  B255     1.0000 0.00000  0.17950  0.24200  Biso   1.000  B 
  B256     1.0000 0.00000  0.11140  0.21490  Biso   1.000  B 
  B257     1.0000 0.00000  0.24200  0.17950  Biso   1.000  B 
  B258     1.0000 0.00000  0.21490  0.11140  Biso   1.000  B 
  B259     1.0000 0.00000  0.23070  0.23070  Biso   1.000  B 
  B260     1.0000 0.00000  0.26930  0.26930  Biso   1.000  B 
  B261     1.0000 0.00000  0.16950  0.27510  Biso   1.000  B 
  B262     1.0000 0.00000  0.25800  0.32050  Biso   1.000  B 
  N17      1.0000 0.01733  0.29177  0.16122  Biso   1.000  N 
  B263     1.0000 0.00000  0.32050  0.25800  Biso   1.000  B 
  B264     1.0000 0.00000  0.29420  0.35530  Biso   1.000  B 
  N18      1.0000 0.01831  0.20695  0.33960  Biso   1.000  N 
  B265     1.0000 0.00000  0.35530  0.29420  Biso   1.000  B 
  B266     1.0000 0.00000  0.33050  0.22490  Biso   1.000  B 
  B267     1.0000 0.00000  0.34350  0.34350  Biso   1.000  B 
  B268     1.0000 0.00000  0.38280  0.38280  Biso   1.000  B 
  B269     1.0000 0.00000  0.28510  0.38860  Biso   1.000  B 
  B270     1.0000 0.00000  0.38860  0.28510  Biso   1.000  B 
  B271     1.0000 0.00000  0.36740  0.42810  Biso   1.000  B 
  B272     1.0000 0.00000  0.42810  0.36740  Biso   1.000  B 
  C65      1.0000 0.98208  0.18251  0.37222  Biso   1.000  C 
  C66      1.0000 0.07095  0.28770  0.15038  Biso   1.000  C 
  C67      1.0000 0.99379  0.12715  0.36963  Biso   1.000  C 
  C68      1.0000 0.08510  0.31675  0.09954  Biso   1.000  C 
  H161     1.0000 0.99583  0.29894  0.12767  Biso   1.000  H 
  H162     1.0000 0.05212  0.21041  0.35723  Biso   1.000  H 
  C69      1.0000 0.05512  0.36343  0.09126  Biso   1.000  C 
  H163     1.0000 0.08957  0.30452  0.18326  Biso   1.000  H 
  H164     1.0000 0.94353  0.18768  0.35667  Biso   1.000  H 
  H165     1.0000 0.02167  0.35582  0.06611  Biso   1.000  H 
  C70      1.0000 0.08827  0.40272  0.06493  Biso   1.000  C 
  H166     1.0000 0.04027  0.37676  0.12645  Biso   1.000  H 
  C71      1.0000 0.02771  0.11288  0.41231  Biso   1.000  C 
  H167     1.0000 0.06648  0.11747  0.39885  Biso   1.000  H 
  C72      1.0000 0.02436  0.05880  0.42616  Biso   1.000  C 
  H168     1.0000 0.02314  0.13725  0.44642  Biso   1.000  H 
  H169     1.0000 0.98408  0.19896  0.41106  Biso   1.000  H 
  H170     1.0000 0.08512  0.24785  0.14719  Biso   1.000  H 
  H171     1.0000 0.01144  0.11547  0.33407  Biso   1.000  H 
  H172     1.0000 0.95706  0.10878  0.37289  Biso   1.000  H 
  H173     1.0000 0.07937  0.29273  0.06669  Biso   1.000  H 
  H174     1.0000 0.12634  0.32588  0.10060  Biso   1.000  H 
  H175     1.0000 0.12183  0.41040  0.08765  Biso   1.000  H 
  H176     1.0000 0.06985  0.43838  0.06259  Biso   1.000  H 
  H177     1.0000 0.98688  0.04763  0.43848  Biso   1.000  H 
  H178     1.0000 0.05015  0.05470  0.45875  Biso   1.000  H 
  H179     1.0000 0.09945  0.38683  0.02913  Biso   1.000  H 
  H180     1.0000 0.03678  0.03395  0.39563  Biso   1.000  H 
  B273     1.0000 0.00000  0.07190  0.86740  Biso   1.000  B 
  B274     1.0000 0.00000  0.11720  0.88280  Biso   1.000  B 
  B275     1.0000 0.00000  0.13260  0.92810  Biso   1.000  B 
  B276     1.0000 0.00000  0.15650  0.84350  Biso   1.000  B 
  B277     1.0000 0.00000  0.14470  0.79420  Biso   1.000  B 
  B278     1.0000 0.00000  0.20580  0.85530  Biso   1.000  B 
  B279     1.0000 0.00000  0.17950  0.75800  Biso   1.000  B 
  B280     1.0000 0.00000  0.11140  0.78510  Biso   1.000  B 
  B281     1.0000 0.00000  0.24200  0.82050  Biso   1.000  B 
  B282     1.0000 0.00000  0.21490  0.88860  Biso   1.000  B 
  B283     1.0000 0.00000  0.23070  0.76930  Biso   1.000  B 
  B284     1.0000 0.00000  0.26930  0.73070  Biso   1.000  B 
  B285     1.0000 0.00000  0.16950  0.72490  Biso   1.000  B 
  B286     1.0000 0.00000  0.25800  0.67950  Biso   1.000  B 
  N19      1.0000 0.98415  0.29213  0.83941  Biso   1.000  N 
  B287     1.0000 0.00000  0.32050  0.74200  Biso   1.000  B 
  B288     1.0000 0.00000  0.29420  0.64470  Biso   1.000  B 
  N20      1.0000 0.98169  0.20695  0.66040  Biso   1.000  N 
  B289     1.0000 0.00000  0.35530  0.70580  Biso   1.000  B 
  B290     1.0000 0.00000  0.33050  0.77510  Biso   1.000  B 
  B291     1.0000 0.00000  0.34350  0.65650  Biso   1.000  B 
  B292     1.0000 0.00000  0.38280  0.61720  Biso   1.000  B 
  B293     1.0000 0.00000  0.28510  0.61140  Biso   1.000  B 
  B294     1.0000 0.00000  0.38860  0.71490  Biso   1.000  B 
  B295     1.0000 0.00000  0.36740  0.57190  Biso   1.000  B 
  B296     1.0000 0.00000  0.42810  0.63260  Biso   1.000  B 
  C73      1.0000 0.01792  0.18251  0.62778  Biso   1.000  C 
  C74      1.0000 0.93142  0.28760  0.85338  Biso   1.000  C 
  C75      1.0000 0.00621  0.12715  0.63037  Biso   1.000  C 
  C76      1.0000 0.91849  0.31759  0.90349  Biso   1.000  C 
  H181     1.0000 0.00684  0.29896  0.87224  Biso   1.000  H 
  H182     1.0000 0.94788  0.21041  0.64277  Biso   1.000  H 
  C77      1.0000 0.94761  0.36537  0.91042  Biso   1.000  C 
  H183     1.0000 0.91125  0.30290  0.82082  Biso   1.000  H 
  H184     1.0000 0.05647  0.18768  0.64333  Biso   1.000  H 
  H185     1.0000 0.97946  0.36027  0.93826  Biso   1.000  H 
  C78      1.0000 0.91138  0.40352  0.93241  Biso   1.000  C 
  H186     1.0000 0.96396  0.37735  0.87549  Biso   1.000  H 
  C79      1.0000 0.97229  0.11288  0.58769  Biso   1.000  C 
  H187     1.0000 0.93352  0.11746  0.60115  Biso   1.000  H 
  C80      1.0000 0.97565  0.05880  0.57384  Biso   1.000  C 
  H188     1.0000 0.97685  0.13725  0.55358  Biso   1.000  H 
  H189     1.0000 0.01592  0.19896  0.58894  Biso   1.000  H 
  H190     1.0000 0.91761  0.24767  0.85830  Biso   1.000  H 
  H191     1.0000 0.98855  0.11547  0.66592  Biso   1.000  H 
  H192     1.0000 0.04294  0.10878  0.62711  Biso   1.000  H 
  H193     1.0000 0.92482  0.29428  0.93653  Biso   1.000  H 
  H194     1.0000 0.87657  0.32456  0.90180  Biso   1.000  H 
  H195     1.0000 0.88060  0.41092  0.90579  Biso   1.000  H 
  H196     1.0000 0.92873  0.43923  0.93806  Biso   1.000  H 
  H197     1.0000 0.01313  0.04764  0.56151  Biso   1.000  H 
  H198     1.0000 0.94985  0.05469  0.54125  Biso   1.000  H 
  H199     1.0000 0.89618  0.38660  0.96643  Biso   1.000  H 
  H200     1.0000 0.96323  0.03395  0.60436  Biso   1.000  H 
  B297     1.0000 0.00000  0.92810  0.86740  Biso   1.000  B 
  B298     1.0000 0.00000  0.88280  0.88280  Biso   1.000  B 
  B299     1.0000 0.00000  0.86740  0.92810  Biso   1.000  B 
  B300     1.0000 0.00000  0.84350  0.84350  Biso   1.000  B 
  B301     1.0000 0.00000  0.85530  0.79420  Biso   1.000  B 
  B302     1.0000 0.00000  0.79420  0.85530  Biso   1.000  B 
  B303     1.0000 0.00000  0.82050  0.75800  Biso   1.000  B 
  B304     1.0000 0.00000  0.88860  0.78510  Biso   1.000  B 
  B305     1.0000 0.00000  0.75800  0.82050  Biso   1.000  B 
  B306     1.0000 0.00000  0.78510  0.88860  Biso   1.000  B 
  B307     1.0000 0.00000  0.76930  0.76930  Biso   1.000  B 
  B308     1.0000 0.00000  0.73070  0.73070  Biso   1.000  B 
  B309     1.0000 0.00000  0.83050  0.72490  Biso   1.000  B 
  B310     1.0000 0.00000  0.74200  0.67950  Biso   1.000  B 
  N21      1.0000 0.01614  0.70793  0.83927  Biso   1.000  N 
  B311     1.0000 0.00000  0.67950  0.74200  Biso   1.000  B 
  B312     1.0000 0.00000  0.70580  0.64470  Biso   1.000  B 
  N22      1.0000 0.01831  0.79304  0.66040  Biso   1.000  N 
  B313     1.0000 0.00000  0.64470  0.70580  Biso   1.000  B 
  B314     1.0000 0.00000  0.66950  0.77510  Biso   1.000  B 
  B315     1.0000 0.00000  0.65650  0.65650  Biso   1.000  B 
  B316     1.0000 0.00000  0.61720  0.61720  Biso   1.000  B 
  B317     1.0000 0.00000  0.71490  0.61140  Biso   1.000  B 
  B318     1.0000 0.00000  0.61140  0.71490  Biso   1.000  B 
  B319     1.0000 0.00000  0.63260  0.57190  Biso   1.000  B 
  B320     1.0000 0.00000  0.57190  0.63260  Biso   1.000  B 
  C81      1.0000 0.98208  0.81749  0.62778  Biso   1.000  C 
  C82      1.0000 0.06904  0.71246  0.85267  Biso   1.000  C 
  C83      1.0000 0.99379  0.87285  0.63037  Biso   1.000  C 
  C84      1.0000 0.08223  0.68247  0.90282  Biso   1.000  C 
  H201     1.0000 0.99366  0.70100  0.87224  Biso   1.000  H 
  H202     1.0000 0.05212  0.78959  0.64277  Biso   1.000  H 
  C85      1.0000 0.05285  0.63493  0.90990  Biso   1.000  C 
  H203     1.0000 0.08895  0.69704  0.81998  Biso   1.000  H 
  H204     1.0000 0.94353  0.81233  0.64333  Biso   1.000  H 
  H205     1.0000 0.02054  0.64060  0.93706  Biso   1.000  H 
  C86      1.0000 0.08844  0.59666  0.93303  Biso   1.000  C 
  H206     1.0000 0.03697  0.62265  0.87486  Biso   1.000  H 
  C87      1.0000 0.02771  0.88712  0.58769  Biso   1.000  C 
  H207     1.0000 0.06648  0.88254  0.60115  Biso   1.000  H 
  C88      1.0000 0.02435  0.94120  0.57383  Biso   1.000  C 
  H208     1.0000 0.02315  0.86275  0.55358  Biso   1.000  H 
  H209     1.0000 0.98408  0.80104  0.58894  Biso   1.000  H 
  H210     1.0000 0.08285  0.75238  0.85742  Biso   1.000  H 
  H211     1.0000 0.01145  0.88453  0.66592  Biso   1.000  H 
  H212     1.0000 0.95706  0.89122  0.62711  Biso   1.000  H 
  H213     1.0000 0.07619  0.70580  0.93594  Biso   1.000  H 
  H214     1.0000 0.12402  0.67500  0.90108  Biso   1.000  H 
  H215     1.0000 0.11986  0.58909  0.90724  Biso   1.000  H 
  H216     1.0000 0.07084  0.56098  0.93821  Biso   1.000  H 
  H217     1.0000 0.98687  0.95236  0.56151  Biso   1.000  H 
  H218     1.0000 0.05015  0.94531  0.54124  Biso   1.000  H 
  H219     1.0000 0.10284  0.61361  0.96734  Biso   1.000  H 
  H220     1.0000 0.03677  0.96605  0.60436  Biso   1.000  H 
  B321     1.0000 0.00000  0.92810  0.13260  Biso   1.000  B 
  B322     1.0000 0.00000  0.88280  0.11720  Biso   1.000  B 
  B323     1.0000 0.00000  0.86740  0.07190  Biso   1.000  B 
  B324     1.0000 0.00000  0.84350  0.15650  Biso   1.000  B 
  B325     1.0000 0.00000  0.85530  0.20580  Biso   1.000  B 
  B326     1.0000 0.00000  0.79420  0.14470  Biso   1.000  B 
  B327     1.0000 0.00000  0.82050  0.24200  Biso   1.000  B 
  B328     1.0000 0.00000  0.88860  0.21490  Biso   1.000  B 
  B329     1.0000 0.00000  0.75800  0.17950  Biso   1.000  B 
  B330     1.0000 0.00000  0.78510  0.11140  Biso   1.000  B 
  B331     1.0000 0.00000  0.76930  0.23070  Biso   1.000  B 
  B332     1.0000 0.00000  0.73070  0.26930  Biso   1.000  B 
  B333     1.0000 0.00000  0.83050  0.27510  Biso   1.000  B 
  B334     1.0000 0.00000  0.74200  0.32050  Biso   1.000  B 
  N23      1.0000 0.98283  0.70819  0.16116  Biso   1.000  N 
  B335     1.0000 0.00000  0.67950  0.25800  Biso   1.000  B 
  B336     1.0000 0.00000  0.70580  0.35530  Biso   1.000  B 
  N24      1.0000 0.98169  0.79304  0.33960  Biso   1.000  N 
  B337     1.0000 0.00000  0.64470  0.29420  Biso   1.000  B 
  B338     1.0000 0.00000  0.66950  0.22490  Biso   1.000  B 
  B339     1.0000 0.00000  0.65650  0.34350  Biso   1.000  B 
  B340     1.0000 0.00000  0.61720  0.38280  Biso   1.000  B 
  B341     1.0000 0.00000  0.71490  0.38860  Biso   1.000  B 
  B342     1.0000 0.00000  0.61140  0.28510  Biso   1.000  B 
  B343     1.0000 0.00000  0.63260  0.42810  Biso   1.000  B 
  B344     1.0000 0.00000  0.57190  0.36740  Biso   1.000  B 
  C89      1.0000 0.01793  0.81749  0.37222  Biso   1.000  C 
  C90      1.0000 0.92932  0.71236  0.14995  Biso   1.000  C 
  C91      1.0000 0.00621  0.87285  0.36963  Biso   1.000  C 
  C92      1.0000 0.91529  0.68308  0.09926  Biso   1.000  C 
  H221     1.0000 0.00449  0.70101  0.12771  Biso   1.000  H 
  H222     1.0000 0.94788  0.78959  0.35723  Biso   1.000  H 
  C93      1.0000 0.94523  0.63630  0.09123  Biso   1.000  C 
  H223     1.0000 0.91049  0.69584  0.18285  Biso   1.000  H 
  H224     1.0000 0.05647  0.81232  0.35667  Biso   1.000  H 
  H225     1.0000 0.97866  0.64371  0.06598  Biso   1.000  H 
  C94      1.0000 0.91184  0.59724  0.06508  Biso   1.000  C 
  H226     1.0000 0.96005  0.62306  0.12646  Biso   1.000  H 
  C95      1.0000 0.97229  0.88712  0.41231  Biso   1.000  C 
  H227     1.0000 0.93352  0.88253  0.39885  Biso   1.000  H 
  C96      1.0000 0.97564  0.94120  0.42616  Biso   1.000  C 
  H228     1.0000 0.97686  0.86275  0.44642  Biso   1.000  H 
  H229     1.0000 0.01592  0.80104  0.41106  Biso   1.000  H 
  H230     1.0000 0.91522  0.75223  0.14645  Biso   1.000  H 
  H231     1.0000 0.98856  0.88453  0.33407  Biso   1.000  H 
  H232     1.0000 0.04295  0.89122  0.37289  Biso   1.000  H 
  H233     1.0000 0.92098  0.70693  0.06630  Biso   1.000  H 
  H234     1.0000 0.87399  0.67412  0.10049  Biso   1.000  H 
  H235     1.0000 0.87849  0.58947  0.08812  Biso   1.000  H 
  H236     1.0000 0.93019  0.56159  0.06223  Biso   1.000  H 
  H237     1.0000 0.01313  0.95236  0.43848  Biso   1.000  H 
  H238     1.0000 0.94985  0.94530  0.45875  Biso   1.000  H 
  H239     1.0000 0.90025  0.61346  0.02953  Biso   1.000  H 
  H240     1.0000 0.96322  0.96605  0.39563  Biso   1.000  H 
  B345     1.0000 0.13260  0.50000  0.57190  Biso   1.000  B 
  B346     1.0000 0.11720  0.50000  0.61720  Biso   1.000  B 
  B347     1.0000 0.07190  0.50000  0.63260  Biso   1.000  B 
  B348     1.0000 0.15650  0.50000  0.65650  Biso   1.000  B 
  B349     1.0000 0.20580  0.50000  0.64470  Biso   1.000  B 
  B350     1.0000 0.14470  0.50000  0.70580  Biso   1.000  B 
  B351     1.0000 0.24200  0.50000  0.67950  Biso   1.000  B 
  B352     1.0000 0.21490  0.50000  0.61140  Biso   1.000  B 
  B353     1.0000 0.17950  0.50000  0.74200  Biso   1.000  B 
  B354     1.0000 0.11140  0.50000  0.71490  Biso   1.000  B 
  B355     1.0000 0.23070  0.50000  0.73070  Biso   1.000  B 
  B356     1.0000 0.26930  0.50000  0.76930  Biso   1.000  B 
  B357     1.0000 0.27510  0.50000  0.66950  Biso   1.000  B 
  B358     1.0000 0.32050  0.50000  0.75800  Biso   1.000  B 
  N25      1.0000 0.16125  0.52579  0.78893  Biso   1.000  N 
  B359     1.0000 0.25800  0.50000  0.82050  Biso   1.000  B 
  B360     1.0000 0.35530  0.50000  0.79420  Biso   1.000  B 
  N26      1.0000 0.34056  0.49386  0.70593  Biso   1.000  N 
  B361     1.0000 0.29420  0.50000  0.85530  Biso   1.000  B 
  B362     1.0000 0.22490  0.50000  0.83050  Biso   1.000  B 
  B363     1.0000 0.34350  0.50000  0.84350  Biso   1.000  B 
  B364     1.0000 0.38280  0.50000  0.88280  Biso   1.000  B 
  B365     1.0000 0.38860  0.50000  0.78510  Biso   1.000  B 
  B366     1.0000 0.28510  0.50000  0.88860  Biso   1.000  B 
  B367     1.0000 0.42810  0.50000  0.86740  Biso   1.000  B 
  B368     1.0000 0.36740  0.50000  0.92810  Biso   1.000  B 
  C97      1.0000 0.35009  0.44219  0.69674  Biso   1.000  C 
  C98      1.0000 0.14429  0.57912  0.78485  Biso   1.000  C 
  C99      1.0000 0.38005  0.43616  0.64689  Biso   1.000  C 
  C100     1.0000 0.18247  0.60994  0.81350  Biso   1.000  C 
  H241     1.0000 0.13149  0.50529  0.80260  Biso   1.000  H 
  H242     1.0000 0.37436  0.51283  0.70211  Biso   1.000  H 
  C101     1.0000 0.22356  0.62815  0.78109  Biso   1.000  C 
  H243     1.0000 0.13969  0.59257  0.74610  Biso   1.000  H 
  H244     1.0000 0.31353  0.42286  0.69097  Biso   1.000  H 
  H245     1.0000 0.23004  0.60843  0.74519  Biso   1.000  H 
  C102     1.0000 0.27419  0.63327  0.80526  Biso   1.000  C 
  H246     1.0000 0.21145  0.66651  0.77145  Biso   1.000  H 
  C103     1.0000 0.42936  0.40687  0.64797  Biso   1.000  C 
  H247     1.0000 0.42162  0.36818  0.65899  Biso   1.000  H 
  C104     1.0000 0.46967  0.43127  0.67932  Biso   1.000  C 
  H248     1.0000 0.44569  0.40611  0.60975  Biso   1.000  H 
  H249     1.0000 0.36952  0.42472  0.72848  Biso   1.000  H 
  H250     1.0000 0.10740  0.58470  0.80515  Biso   1.000  H 
  H251     1.0000 0.38783  0.47409  0.63019  Biso   1.000  H 
  H252     1.0000 0.35439  0.41572  0.62170  Biso   1.000  H 
  H253     1.0000 0.20036  0.58543  0.84223  Biso   1.000  H 
  H254     1.0000 0.16956  0.64345  0.83358  Biso   1.000  H 
  H255     1.0000 0.29373  0.59856  0.79717  Biso   1.000  H 
  H256     1.0000 0.27123  0.64039  0.84507  Biso   1.000  H 
  H257     1.0000 0.45487  0.44102  0.71689  Biso   1.000  H 
  H258     1.0000 0.48153  0.46512  0.65890  Biso   1.000  H 
  H259     1.0000 0.29286  0.66487  0.78769  Biso   1.000  H 
  H260     1.0000 0.50156  0.40612  0.68407  Biso   1.000  H 
  B369     1.0000 0.86740  0.50000  0.57190  Biso   1.000  B 
  B370     1.0000 0.88280  0.50000  0.61720  Biso   1.000  B 
  B371     1.0000 0.92810  0.50000  0.63260  Biso   1.000  B 
  B372     1.0000 0.84350  0.50000  0.65650  Biso   1.000  B 
  B373     1.0000 0.79420  0.50000  0.64470  Biso   1.000  B 
  B374     1.0000 0.85530  0.50000  0.70580  Biso   1.000  B 
  B375     1.0000 0.75800  0.50000  0.67950  Biso   1.000  B 
  B376     1.0000 0.78510  0.50000  0.61140  Biso   1.000  B 
  B377     1.0000 0.82050  0.50000  0.74200  Biso   1.000  B 
  B378     1.0000 0.88860  0.50000  0.71490  Biso   1.000  B 
  B379     1.0000 0.76930  0.50000  0.73070  Biso   1.000  B 
  B380     1.0000 0.73070  0.50000  0.76930  Biso   1.000  B 
  B381     1.0000 0.72490  0.50000  0.66950  Biso   1.000  B 
  B382     1.0000 0.67950  0.50000  0.75800  Biso   1.000  B 
  N27      1.0000 0.83872  0.47414  0.78892  Biso   1.000  N 
  B383     1.0000 0.74200  0.50000  0.82050  Biso   1.000  B 
  B384     1.0000 0.64470  0.50000  0.79420  Biso   1.000  B 
  N28      1.0000 0.65956  0.50651  0.70590  Biso   1.000  N 
  B385     1.0000 0.70580  0.50000  0.85530  Biso   1.000  B 
  B386     1.0000 0.77510  0.50000  0.83050  Biso   1.000  B 
  B387     1.0000 0.65650  0.50000  0.84350  Biso   1.000  B 
  B388     1.0000 0.61720  0.50000  0.88280  Biso   1.000  B 
  B389     1.0000 0.61140  0.50000  0.78510  Biso   1.000  B 
  B390     1.0000 0.71490  0.50000  0.88860  Biso   1.000  B 
  B391     1.0000 0.57190  0.50000  0.86740  Biso   1.000  B 
  B392     1.0000 0.63260  0.50000  0.92810  Biso   1.000  B 
  C105     1.0000 0.65135  0.55823  0.69562  Biso   1.000  C 
  C106     1.0000 0.85565  0.42077  0.78478  Biso   1.000  C 
  C107     1.0000 0.62006  0.56378  0.64642  Biso   1.000  C 
  C108     1.0000 0.81744  0.38990  0.81334  Biso   1.000  C 
  H261     1.0000 0.86852  0.49459  0.80258  Biso   1.000  H 
  H262     1.0000 0.62533  0.48832  0.70216  Biso   1.000  H 
  C109     1.0000 0.77636  0.37164  0.78089  Biso   1.000  C 
  H263     1.0000 0.86021  0.40738  0.74601  Biso   1.000  H 
  H264     1.0000 0.68826  0.57626  0.68818  Biso   1.000  H 
  H265     1.0000 0.76992  0.39131  0.74496  Biso   1.000  H 
  C110     1.0000 0.72570  0.36660  0.80501  Biso   1.000  C 
  H266     1.0000 0.78843  0.33326  0.77132  Biso   1.000  H 
  C111     1.0000 0.57024  0.59244  0.64922  Biso   1.000  C 
  H267     1.0000 0.57826  0.63119  0.65998  Biso   1.000  H 
  C112     1.0000 0.53153  0.56782  0.68274  Biso   1.000  C 
  H268     1.0000 0.55233  0.59295  0.61176  Biso   1.000  H 
  H269     1.0000 0.63360  0.57702  0.72749  Biso   1.000  H 
  H270     1.0000 0.89253  0.41512  0.80507  Biso   1.000  H 
  H271     1.0000 0.61256  0.52583  0.62962  Biso   1.000  H 
  H272     1.0000 0.64473  0.58481  0.62079  Biso   1.000  H 
  H273     1.0000 0.79951  0.41435  0.84213  Biso   1.000  H 
  H274     1.0000 0.83043  0.35642  0.83340  Biso   1.000  H 
  H275     1.0000 0.70624  0.40132  0.79678  Biso   1.000  H 
  H276     1.0000 0.72860  0.35964  0.84487  Biso   1.000  H 
  H277     1.0000 0.54530  0.56758  0.72175  Biso   1.000  H 
  H278     1.0000 0.52539  0.52954  0.66859  Biso   1.000  H 
  H279     1.0000 0.70697  0.33495  0.78759  Biso   1.000  H 
  H280     1.0000 0.49637  0.58876  0.68203  Biso   1.000  H 
  B393     1.0000 0.86740  0.50000  0.42810  Biso   1.000  B 
  B394     1.0000 0.88280  0.50000  0.38280  Biso   1.000  B 
  B395     1.0000 0.92810  0.50000  0.36740  Biso   1.000  B 
  B396     1.0000 0.84350  0.50000  0.34350  Biso   1.000  B 
  B397     1.0000 0.79420  0.50000  0.35530  Biso   1.000  B 
  B398     1.0000 0.85530  0.50000  0.29420  Biso   1.000  B 
  B399     1.0000 0.75800  0.50000  0.32050  Biso   1.000  B 
  B400     1.0000 0.78510  0.50000  0.38860  Biso   1.000  B 
  B401     1.0000 0.82050  0.50000  0.25800  Biso   1.000  B 
  B402     1.0000 0.88860  0.50000  0.28510  Biso   1.000  B 
  B403     1.0000 0.76930  0.50000  0.26930  Biso   1.000  B 
  B404     1.0000 0.73070  0.50000  0.23070  Biso   1.000  B 
  B405     1.0000 0.72490  0.50000  0.33050  Biso   1.000  B 
  B406     1.0000 0.67950  0.50000  0.24200  Biso   1.000  B 
  N29      1.0000 0.83899  0.52526  0.21096  Biso   1.000  N 
  B407     1.0000 0.74200  0.50000  0.17950  Biso   1.000  B 
  B408     1.0000 0.64470  0.50000  0.20580  Biso   1.000  B 
  N30      1.0000 0.65943  0.49388  0.29407  Biso   1.000  N 
  B409     1.0000 0.70580  0.50000  0.14470  Biso   1.000  B 
  B410     1.0000 0.77510  0.50000  0.16950  Biso   1.000  B 
  B411     1.0000 0.65650  0.50000  0.15650  Biso   1.000  B 
  B412     1.0000 0.61720  0.50000  0.11720  Biso   1.000  B 
  B413     1.0000 0.61140  0.50000  0.21490  Biso   1.000  B 
  B414     1.0000 0.71490  0.50000  0.11140  Biso   1.000  B 
  B415     1.0000 0.57190  0.50000  0.13260  Biso   1.000  B 
  B416     1.0000 0.63260  0.50000  0.07190  Biso   1.000  B 
  C113     1.0000 0.64978  0.44223  0.30319  Biso   1.000  C 
  C114     1.0000 0.85638  0.57837  0.21465  Biso   1.000  C 
  C115     1.0000 0.61989  0.43619  0.35307  Biso   1.000  C 
  C116     1.0000 0.81835  0.60909  0.18569  Biso   1.000  C 
  H281     1.0000 0.86853  0.50442  0.19729  Biso   1.000  H 
  H282     1.0000 0.62567  0.51293  0.29791  Biso   1.000  H 
  C117     1.0000 0.77726  0.62708  0.21793  Biso   1.000  C 
  H283     1.0000 0.86132  0.59208  0.25329  Biso   1.000  H 
  H284     1.0000 0.68633  0.42283  0.30891  Biso   1.000  H 
  H285     1.0000 0.77056  0.60716  0.25365  Biso   1.000  H 
  C118     1.0000 0.72682  0.63273  0.19346  Biso   1.000  C 
  H286     1.0000 0.78964  0.66534  0.22787  Biso   1.000  H 
  C119     1.0000 0.57060  0.40686  0.35211  Biso   1.000  C 
  H287     1.0000 0.57834  0.36814  0.34118  Biso   1.000  H 
  C120     1.0000 0.53024  0.43116  0.32076  Biso   1.000  C 
  H288     1.0000 0.55431  0.40618  0.39035  Biso   1.000  H 
  H289     1.0000 0.63029  0.42483  0.27146  Biso   1.000  H 
  H290     1.0000 0.89323  0.58345  0.19425  Biso   1.000  H 
  H291     1.0000 0.61206  0.47413  0.36974  Biso   1.000  H 
  H292     1.0000 0.64560  0.41583  0.37827  Biso   1.000  H 
  H293     1.0000 0.80051  0.58439  0.15719  Biso   1.000  H 
  H294     1.0000 0.83092  0.64271  0.16554  Biso   1.000  H 
  H295     1.0000 0.70684  0.59813  0.20072  Biso   1.000  H 
  H296     1.0000 0.73017  0.64063  0.15383  Biso   1.000  H 
  H297     1.0000 0.54501  0.44099  0.28320  Biso   1.000  H 
  H298     1.0000 0.51829  0.46496  0.34121  Biso   1.000  H 
  H299     1.0000 0.70847  0.66415  0.21163  Biso   1.000  H 
  H300     1.0000 0.49841  0.40593  0.31601  Biso   1.000  H 
  B417     1.0000 0.13260  0.50000  0.42810  Biso   1.000  B 
  B418     1.0000 0.11720  0.50000  0.38280  Biso   1.000  B 
  B419     1.0000 0.07190  0.50000  0.36740  Biso   1.000  B 
  B420     1.0000 0.15650  0.50000  0.34350  Biso   1.000  B 
  B421     1.0000 0.20580  0.50000  0.35530  Biso   1.000  B 
  B422     1.0000 0.14470  0.50000  0.29420  Biso   1.000  B 
  B423     1.0000 0.24200  0.50000  0.32050  Biso   1.000  B 
  B424     1.0000 0.21490  0.50000  0.38860  Biso   1.000  B 
  B425     1.0000 0.17950  0.50000  0.25800  Biso   1.000  B 
  B426     1.0000 0.11140  0.50000  0.28510  Biso   1.000  B 
  B427     1.0000 0.23070  0.50000  0.26930  Biso   1.000  B 
  B428     1.0000 0.26930  0.50000  0.23070  Biso   1.000  B 
  B429     1.0000 0.27510  0.50000  0.33050  Biso   1.000  B 
  B430     1.0000 0.32050  0.50000  0.24200  Biso   1.000  B 
  N31      1.0000 0.16097  0.47484  0.21094  Biso   1.000  N 
  B431     1.0000 0.25800  0.50000  0.17950  Biso   1.000  B 
  B432     1.0000 0.35530  0.50000  0.20580  Biso   1.000  B 
  N32      1.0000 0.34045  0.50649  0.29411  Biso   1.000  N 
  B433     1.0000 0.29420  0.50000  0.14470  Biso   1.000  B 
  B434     1.0000 0.22490  0.50000  0.16950  Biso   1.000  B 
  B435     1.0000 0.34350  0.50000  0.15650  Biso   1.000  B 
  B436     1.0000 0.38280  0.50000  0.11720  Biso   1.000  B 
  B437     1.0000 0.38860  0.50000  0.21490  Biso   1.000  B 
  B438     1.0000 0.28510  0.50000  0.11140  Biso   1.000  B 
  B439     1.0000 0.42810  0.50000  0.13260  Biso   1.000  B 
  B440     1.0000 0.36740  0.50000  0.07190  Biso   1.000  B 
  C121     1.0000 0.34871  0.55819  0.30438  Biso   1.000  C 
  C122     1.0000 0.14351  0.42178  0.21456  Biso   1.000  C 
  C123     1.0000 0.38002  0.56370  0.35357  Biso   1.000  C 
  C124     1.0000 0.18150  0.39109  0.18552  Biso   1.000  C 
  H301     1.0000 0.13148  0.49575  0.19727  Biso   1.000  H 
  H302     1.0000 0.37467  0.48826  0.29785  Biso   1.000  H 
  C125     1.0000 0.22263  0.37313  0.21768  Biso   1.000  C 
  H303     1.0000 0.13854  0.40803  0.25319  Biso   1.000  H 
  H304     1.0000 0.31181  0.57625  0.31183  Biso   1.000  H 
  H305     1.0000 0.22940  0.39305  0.25339  Biso   1.000  H 
  C126     1.0000 0.27300  0.36738  0.19309  Biso   1.000  C 
  H306     1.0000 0.21021  0.33488  0.22766  Biso   1.000  H 
  C127     1.0000 0.42980  0.59244  0.35080  Biso   1.000  C 
  H307     1.0000 0.42174  0.63118  0.34008  Biso   1.000  H 
  C128     1.0000 0.46856  0.56791  0.31727  Biso   1.000  C 
  H308     1.0000 0.44770  0.59294  0.38826  Biso   1.000  H 
  H309     1.0000 0.36646  0.57697  0.27250  Biso   1.000  H 
  H310     1.0000 0.10665  0.41681  0.19417  Biso   1.000  H 
  H311     1.0000 0.38759  0.52575  0.37030  Biso   1.000  H 
  H312     1.0000 0.35533  0.58466  0.37925  Biso   1.000  H 
  H313     1.0000 0.19930  0.41582  0.15704  Biso   1.000  H 
  H314     1.0000 0.16895  0.35745  0.16538  Biso   1.000  H 
  H315     1.0000 0.29306  0.40197  0.20014  Biso   1.000  H 
  H316     1.0000 0.26954  0.35928  0.15352  Biso   1.000  H 
  H317     1.0000 0.45476  0.56754  0.27828  Biso   1.000  H 
  H318     1.0000 0.47487  0.52967  0.33148  Biso   1.000  H 
  H319     1.0000 0.29134  0.33604  0.21140  Biso   1.000  H 
  H320     1.0000 0.50364  0.58898  0.31791  Biso   1.000  H 
  B441     1.0000 0.07190  0.63260  0.50000  Biso   1.000  B 
  B442     1.0000 0.11720  0.61720  0.50000  Biso   1.000  B 
  B443     1.0000 0.13260  0.57190  0.50000  Biso   1.000  B 
  B444     1.0000 0.15650  0.65650  0.50000  Biso   1.000  B 
  B445     1.0000 0.14470  0.70580  0.50000  Biso   1.000  B 
  B446     1.0000 0.20580  0.64470  0.50000  Biso   1.000  B 
  B447     1.0000 0.17950  0.74200  0.50000  Biso   1.000  B 
  B448     1.0000 0.11140  0.71490  0.50000  Biso   1.000  B 
  B449     1.0000 0.24200  0.67950  0.50000  Biso   1.000  B 
  B450     1.0000 0.21490  0.61140  0.50000  Biso   1.000  B 
  B451     1.0000 0.23070  0.73070  0.50000  Biso   1.000  B 
  B452     1.0000 0.26930  0.76930  0.50000  Biso   1.000  B 
  B453     1.0000 0.16950  0.77510  0.50000  Biso   1.000  B 
  B454     1.0000 0.25800  0.82050  0.50000  Biso   1.000  B 
  N33      1.0000 0.29047  0.66134  0.47367  Biso   1.000  N 
  B455     1.0000 0.32050  0.75800  0.50000  Biso   1.000  B 
  B456     1.0000 0.29420  0.85530  0.50000  Biso   1.000  B 
  N34      1.0000 0.20571  0.83957  0.48300  Biso   1.000  N 
  B457     1.0000 0.35530  0.79420  0.50000  Biso   1.000  B 
  B458     1.0000 0.33050  0.72490  0.50000  Biso   1.000  B 
  B459     1.0000 0.34350  0.84350  0.50000  Biso   1.000  B 
  B460     1.0000 0.38280  0.88280  0.50000  Biso   1.000  B 
  B461     1.0000 0.28510  0.88860  0.50000  Biso   1.000  B 
  B462     1.0000 0.38860  0.78510  0.50000  Biso   1.000  B 
  B463     1.0000 0.36740  0.92810  0.50000  Biso   1.000  B 
  B464     1.0000 0.42810  0.86740  0.50000  Biso   1.000  B 
  C129     1.0000 0.20280  0.85694  0.43020  Biso   1.000  C 
  C130     1.0000 0.31651  0.62679  0.50569  Biso   1.000  C 
  C131     1.0000 0.15544  0.88920  0.41913  Biso   1.000  C 
  C132     1.0000 0.37006  0.61732  0.48721  Biso   1.000  C 
  H321     1.0000 0.28134  0.64236  0.44014  Biso   1.000  H 
  H322     1.0000 0.19613  0.86988  0.50529  Biso   1.000  H 
  C133     1.0000 0.40969  0.64587  0.51875  Biso   1.000  C 
  H323     1.0000 0.31851  0.64253  0.54431  Biso   1.000  H 
  H324     1.0000 0.20209  0.82422  0.40490  Biso   1.000  H 
  H325     1.0000 0.42822  0.67260  0.49298  Biso   1.000  H 
  C134     1.0000 0.44987  0.61055  0.53738  Biso   1.000  C 
  H326     1.0000 0.39477  0.66784  0.54953  Biso   1.000  H 
  C135     1.0000 0.16488  0.94408  0.42527  Biso   1.000  C 
  H327     1.0000 0.18613  0.95368  0.46039  Biso   1.000  H 
  C136     1.0000 0.11680  0.97265  0.42702  Biso   1.000  C 
  H328     1.0000 0.18736  0.95733  0.39318  Biso   1.000  H 
  H329     1.0000 0.23591  0.87994  0.42125  Biso   1.000  H 
  H330     1.0000 0.29643  0.59055  0.50739  Biso   1.000  H 
  H331     1.0000 0.12469  0.87497  0.44451  Biso   1.000  H 
  H332     1.0000 0.14302  0.88424  0.38002  Biso   1.000  H 
  H333     1.0000 0.37380  0.62751  0.44706  Biso   1.000  H 
  H334     1.0000 0.37833  0.57561  0.48957  Biso   1.000  H 
  H335     1.0000 0.43732  0.58406  0.56758  Biso   1.000  H 
  H336     1.0000 0.48328  0.63207  0.54940  Biso   1.000  H 
  H337     1.0000 0.09953  0.97151  0.46386  Biso   1.000  H 
  H338     1.0000 0.08976  0.95478  0.40125  Biso   1.000  H 
  H339     1.0000 0.45898  0.58863  0.50508  Biso   1.000  H 
  H340     1.0000 0.12373  0.01059  0.41414  Biso   1.000  H 
  B465     1.0000 0.07190  0.36740  0.50000  Biso   1.000  B 
  B466     1.0000 0.11720  0.38280  0.50000  Biso   1.000  B 
  B467     1.0000 0.13260  0.42810  0.50000  Biso   1.000  B 
  B468     1.0000 0.15650  0.34350  0.50000  Biso   1.000  B 
  B469     1.0000 0.14470  0.29420  0.50000  Biso   1.000  B 
  B470     1.0000 0.20580  0.35530  0.50000  Biso   1.000  B 
  B471     1.0000 0.17950  0.25800  0.50000  Biso   1.000  B 
  B472     1.0000 0.11140  0.28510  0.50000  Biso   1.000  B 
  B473     1.0000 0.24200  0.32050  0.50000  Biso   1.000  B 
  B474     1.0000 0.21490  0.38860  0.50000  Biso   1.000  B 
  B475     1.0000 0.23070  0.26930  0.50000  Biso   1.000  B 
  B476     1.0000 0.26930  0.23070  0.50000  Biso   1.000  B 
  B477     1.0000 0.16950  0.22490  0.50000  Biso   1.000  B 
  B478     1.0000 0.25800  0.17950  0.50000  Biso   1.000  B 
  N35      1.0000 0.29046  0.33865  0.52633  Biso   1.000  N 
  B479     1.0000 0.32050  0.24200  0.50000  Biso   1.000  B 
  B480     1.0000 0.29420  0.14470  0.50000  Biso   1.000  B 
  N36      1.0000 0.20571  0.16043  0.51700  Biso   1.000  N 
  B481     1.0000 0.35530  0.20580  0.50000  Biso   1.000  B 
  B482     1.0000 0.33050  0.27510  0.50000  Biso   1.000  B 
  B483     1.0000 0.34350  0.15650  0.50000  Biso   1.000  B 
  B484     1.0000 0.38280  0.11720  0.50000  Biso   1.000  B 
  B485     1.0000 0.28510  0.11140  0.50000  Biso   1.000  B 
  B486     1.0000 0.38860  0.21490  0.50000  Biso   1.000  B 
  B487     1.0000 0.36740  0.07190  0.50000  Biso   1.000  B 
  B488     1.0000 0.42810  0.13260  0.50000  Biso   1.000  B 
  C137     1.0000 0.20280  0.14307  0.56981  Biso   1.000  C 
  C138     1.0000 0.31647  0.37320  0.49428  Biso   1.000  C 
  C139     1.0000 0.15544  0.11080  0.58088  Biso   1.000  C 
  C140     1.0000 0.36999  0.38285  0.51274  Biso   1.000  C 
  H341     1.0000 0.28131  0.35768  0.55983  Biso   1.000  H 
  H342     1.0000 0.19613  0.13012  0.49471  Biso   1.000  H 
  C141     1.0000 0.40970  0.35414  0.48142  Biso   1.000  C 
  H343     1.0000 0.31855  0.35739  0.45569  Biso   1.000  H 
  H344     1.0000 0.20209  0.17578  0.59510  Biso   1.000  H 
  H345     1.0000 0.42813  0.32751  0.50735  Biso   1.000  H 
  C142     1.0000 0.44998  0.38933  0.46271  Biso   1.000  C 
  H346     1.0000 0.39485  0.33207  0.45064  Biso   1.000  H 
  C143     1.0000 0.16488  0.05592  0.57473  Biso   1.000  C 
  H347     1.0000 0.18614  0.04632  0.53962  Biso   1.000  H 
  C144     1.0000 0.11680  0.02736  0.57297  Biso   1.000  C 
  H348     1.0000 0.18735  0.04267  0.60682  Biso   1.000  H 
  H349     1.0000 0.23591  0.12006  0.57875  Biso   1.000  H 
  H350     1.0000 0.29633  0.40940  0.49247  Biso   1.000  H 
  H351     1.0000 0.12469  0.12503  0.55549  Biso   1.000  H 
  H352     1.0000 0.14303  0.11576  0.61998  Biso   1.000  H 
  H353     1.0000 0.37361  0.37298  0.55300  Biso   1.000  H 
  H354     1.0000 0.37824  0.42454  0.51010  Biso   1.000  H 
  H355     1.0000 0.43751  0.41581  0.43246  Biso   1.000  H 
  H356     1.0000 0.48332  0.36771  0.45069  Biso   1.000  H 
  H357     1.0000 0.09954  0.02850  0.53613  Biso   1.000  H 
  H358     1.0000 0.08976  0.04523  0.59874  Biso   1.000  H 
  H359     1.0000 0.45914  0.41125  0.49499  Biso   1.000  H 
  H360     1.0000 0.12372  0.98941  0.58585  Biso   1.000  H 
  B489     1.0000 0.92810  0.36740  0.50000  Biso   1.000  B 
  B490     1.0000 0.88280  0.38280  0.50000  Biso   1.000  B 
  B491     1.0000 0.86740  0.42810  0.50000  Biso   1.000  B 
  B492     1.0000 0.84350  0.34350  0.50000  Biso   1.000  B 
  B493     1.0000 0.85530  0.29420  0.50000  Biso   1.000  B 
  B494     1.0000 0.79420  0.35530  0.50000  Biso   1.000  B 
  B495     1.0000 0.82050  0.25800  0.50000  Biso   1.000  B 
  B496     1.0000 0.88860  0.28510  0.50000  Biso   1.000  B 
  B497     1.0000 0.75800  0.32050  0.50000  Biso   1.000  B 
  B498     1.0000 0.78510  0.38860  0.50000  Biso   1.000  B 
  B499     1.0000 0.76930  0.26930  0.50000  Biso   1.000  B 
  B500     1.0000 0.73070  0.23070  0.50000  Biso   1.000  B 
  B501     1.0000 0.83050  0.22490  0.50000  Biso   1.000  B 
  B502     1.0000 0.74200  0.17950  0.50000  Biso   1.000  B 
  N37      1.0000 0.70954  0.33865  0.47367  Biso   1.000  N 
  B503     1.0000 0.67950  0.24200  0.50000  Biso   1.000  B 
  B504     1.0000 0.70580  0.14470  0.50000  Biso   1.000  B 
  N38      1.0000 0.79429  0.16043  0.48300  Biso   1.000  N 
  B505     1.0000 0.64470  0.20580  0.50000  Biso   1.000  B 
  B506     1.0000 0.66950  0.27510  0.50000  Biso   1.000  B 
  B507     1.0000 0.65650  0.15650  0.50000  Biso   1.000  B 
  B508     1.0000 0.61720  0.11720  0.50000  Biso   1.000  B 
  B509     1.0000 0.71490  0.11140  0.50000  Biso   1.000  B 
  B510     1.0000 0.61140  0.21490  0.50000  Biso   1.000  B 
  B511     1.0000 0.63260  0.07190  0.50000  Biso   1.000  B 
  B512     1.0000 0.57190  0.13260  0.50000  Biso   1.000  B 
  C145     1.0000 0.79720  0.14306  0.43020  Biso   1.000  C 
  C146     1.0000 0.68350  0.37316  0.50574  Biso   1.000  C 
  C147     1.0000 0.84456  0.11080  0.41913  Biso   1.000  C 
  C148     1.0000 0.63002  0.38282  0.48722  Biso   1.000  C 
  H361     1.0000 0.71869  0.35770  0.44019  Biso   1.000  H 
  H362     1.0000 0.80387  0.13012  0.50529  Biso   1.000  H 
  C149     1.0000 0.59024  0.35413  0.51847  Biso   1.000  C 
  H363     1.0000 0.68137  0.35730  0.54430  Biso   1.000  H 
  H364     1.0000 0.79791  0.17578  0.40490  Biso   1.000  H 
  H365     1.0000 0.57159  0.32773  0.49245  Biso   1.000  H 
  C150     1.0000 0.55019  0.38941  0.53747  Biso   1.000  C 
  H366     1.0000 0.60508  0.33180  0.54906  Biso   1.000  H 
  C151     1.0000 0.83512  0.05592  0.42527  Biso   1.000  C 
  H367     1.0000 0.81386  0.04632  0.46039  Biso   1.000  H 
  C152     1.0000 0.88321  0.02735  0.42702  Biso   1.000  C 
  H368     1.0000 0.81264  0.04267  0.39318  Biso   1.000  H 
  H369     1.0000 0.76409  0.12006  0.42125  Biso   1.000  H 
  H370     1.0000 0.70364  0.40936  0.50761  Biso   1.000  H 
  H371     1.0000 0.87531  0.12503  0.44451  Biso   1.000  H 
  H372     1.0000 0.85698  0.11576  0.38002  Biso   1.000  H 
  H373     1.0000 0.62644  0.37293  0.44695  Biso   1.000  H 
  H374     1.0000 0.62177  0.42451  0.48981  Biso   1.000  H 
  H375     1.0000 0.56295  0.41582  0.56766  Biso   1.000  H 
  H376     1.0000 0.51685  0.36788  0.54970  Biso   1.000  H 
  H377     1.0000 0.90047  0.02849  0.46386  Biso   1.000  H 
  H378     1.0000 0.91024  0.04522  0.40125  Biso   1.000  H 
  H379     1.0000 0.54087  0.41139  0.50528  Biso   1.000  H 
  H380     1.0000 0.87628  0.98941  0.41414  Biso   1.000  H 
  B513     1.0000 0.92810  0.63260  0.50000  Biso   1.000  B 
  B514     1.0000 0.88280  0.61720  0.50000  Biso   1.000  B 
  B515     1.0000 0.86740  0.57190  0.50000  Biso   1.000  B 
  B516     1.0000 0.84350  0.65650  0.50000  Biso   1.000  B 
  B517     1.0000 0.85530  0.70580  0.50000  Biso   1.000  B 
  B518     1.0000 0.79420  0.64470  0.50000  Biso   1.000  B 
  B519     1.0000 0.82050  0.74200  0.50000  Biso   1.000  B 
  B520     1.0000 0.88860  0.71490  0.50000  Biso   1.000  B 
  B521     1.0000 0.75800  0.67950  0.50000  Biso   1.000  B 
  B522     1.0000 0.78510  0.61140  0.50000  Biso   1.000  B 
  B523     1.0000 0.76930  0.73070  0.50000  Biso   1.000  B 
  B524     1.0000 0.73070  0.76930  0.50000  Biso   1.000  B 
  B525     1.0000 0.83050  0.77510  0.50000  Biso   1.000  B 
  B526     1.0000 0.74200  0.82050  0.50000  Biso   1.000  B 
  N39      1.0000 0.70953  0.66134  0.52633  Biso   1.000  N 
  B527     1.0000 0.67950  0.75800  0.50000  Biso   1.000  B 
  B528     1.0000 0.70580  0.85530  0.50000  Biso   1.000  B 
  N40      1.0000 0.79429  0.83957  0.51700  Biso   1.000  N 
  B529     1.0000 0.64470  0.79420  0.50000  Biso   1.000  B 
  B530     1.0000 0.66950  0.72490  0.50000  Biso   1.000  B 
  B531     1.0000 0.65650  0.84350  0.50000  Biso   1.000  B 
  B532     1.0000 0.61720  0.88280  0.50000  Biso   1.000  B 
  B533     1.0000 0.71490  0.88860  0.50000  Biso   1.000  B 
  B534     1.0000 0.61140  0.78510  0.50000  Biso   1.000  B 
  B535     1.0000 0.63260  0.92810  0.50000  Biso   1.000  B 
  B536     1.0000 0.57190  0.86740  0.50000  Biso   1.000  B 
  C153     1.0000 0.79720  0.85693  0.56981  Biso   1.000  C 
  C154     1.0000 0.68351  0.62677  0.49432  Biso   1.000  C 
  C155     1.0000 0.84456  0.88920  0.58088  Biso   1.000  C 
  C156     1.0000 0.62994  0.61730  0.51276  Biso   1.000  C 
  H381     1.0000 0.71866  0.64237  0.55986  Biso   1.000  H 
  H382     1.0000 0.80387  0.86988  0.49471  Biso   1.000  H 
  C157     1.0000 0.59036  0.64585  0.48117  Biso   1.000  C 
  H383     1.0000 0.68155  0.64247  0.45568  Biso   1.000  H 
  H384     1.0000 0.79791  0.82422  0.59510  Biso   1.000  H 
  H385     1.0000 0.57200  0.67276  0.50686  Biso   1.000  H 
  C158     1.0000 0.55000  0.61061  0.46275  Biso   1.000  C 
  H386     1.0000 0.60529  0.66764  0.45025  Biso   1.000  H 
  C159     1.0000 0.83512  0.94408  0.57473  Biso   1.000  C 
  H387     1.0000 0.81386  0.95368  0.53962  Biso   1.000  H 
  C160     1.0000 0.88320  0.97264  0.57297  Biso   1.000  C 
  H388     1.0000 0.81265  0.95733  0.60683  Biso   1.000  H 
  H389     1.0000 0.76409  0.87994  0.57875  Biso   1.000  H 
  H390     1.0000 0.70359  0.59052  0.49267  Biso   1.000  H 
  H391     1.0000 0.87531  0.87497  0.55550  Biso   1.000  H 
  H392     1.0000 0.85697  0.88424  0.61998  Biso   1.000  H 
  H393     1.0000 0.62616  0.62746  0.55290  Biso   1.000  H 
  H394     1.0000 0.62167  0.57559  0.51035  Biso   1.000  H 
  H395     1.0000 0.56234  0.58408  0.43250  Biso   1.000  H 
  H396     1.0000 0.51659  0.63221  0.45088  Biso   1.000  H 
  H397     1.0000 0.90046  0.97149  0.53613  Biso   1.000  H 
  H398     1.0000 0.91024  0.95477  0.59874  Biso   1.000  H 
  H399     1.0000 0.54101  0.58873  0.49511  Biso   1.000  H 
  H400     1.0000 0.87628  0.01058  0.58585  Biso   1.000  H 
  B537     1.0000 0.50000  0.07190  0.63260  Biso   1.000  B 
  B538     1.0000 0.50000  0.11720  0.61720  Biso   1.000  B 
  B539     1.0000 0.50000  0.13260  0.57190  Biso   1.000  B 
  B540     1.0000 0.50000  0.15650  0.65650  Biso   1.000  B 
  B541     1.0000 0.50000  0.14470  0.70580  Biso   1.000  B 
  B542     1.0000 0.50000  0.20580  0.64470  Biso   1.000  B 
  B543     1.0000 0.50000  0.17950  0.74200  Biso   1.000  B 
  B544     1.0000 0.50000  0.11140  0.71490  Biso   1.000  B 
  B545     1.0000 0.50000  0.24200  0.67950  Biso   1.000  B 
  B546     1.0000 0.50000  0.21490  0.61140  Biso   1.000  B 
  B547     1.0000 0.50000  0.23070  0.73070  Biso   1.000  B 
  B548     1.0000 0.50000  0.26930  0.76930  Biso   1.000  B 
  B549     1.0000 0.50000  0.16950  0.77510  Biso   1.000  B 
  B550     1.0000 0.50000  0.25800  0.82050  Biso   1.000  B 
  N41      1.0000 0.52311  0.28943  0.66109  Biso   1.000  N 
  B551     1.0000 0.50000  0.32050  0.75800  Biso   1.000  B 
  B552     1.0000 0.50000  0.29420  0.85530  Biso   1.000  B 
  N42      1.0000 0.47771  0.20817  0.83872  Biso   1.000  N 
  B553     1.0000 0.50000  0.35530  0.79420  Biso   1.000  B 
  B554     1.0000 0.50000  0.33050  0.72490  Biso   1.000  B 
  B555     1.0000 0.50000  0.34350  0.84350  Biso   1.000  B 
  B556     1.0000 0.50000  0.38280  0.88280  Biso   1.000  B 
  B557     1.0000 0.50000  0.28510  0.88860  Biso   1.000  B 
  B558     1.0000 0.50000  0.38860  0.78510  Biso   1.000  B 
  B559     1.0000 0.50000  0.36740  0.92810  Biso   1.000  B 
  B560     1.0000 0.50000  0.42810  0.86740  Biso   1.000  B 
  C161     1.0000 0.42246  0.21106  0.83956  Biso   1.000  C 
  C162     1.0000 0.57380  0.27581  0.64412  Biso   1.000  C 
  C163     1.0000 0.39656  0.16146  0.84848  Biso   1.000  C 
  C164     1.0000 0.60662  0.32060  0.65049  Biso   1.000  C 
  H401     1.0000 0.50007  0.30608  0.63593  Biso   1.000  H 
  H402     1.0000 0.49097  0.20137  0.87414  Biso   1.000  H 
  C165     1.0000 0.62264  0.32393  0.70612  Biso   1.000  C 
  H403     1.0000 0.59011  0.24238  0.66273  Biso   1.000  H 
  H404     1.0000 0.40882  0.22534  0.80280  Biso   1.000  H 
  H405     1.0000 0.59259  0.31107  0.72893  Biso   1.000  H 
  C166     1.0000 0.63515  0.37710  0.72043  Biso   1.000  C 
  H406     1.0000 0.65479  0.29838  0.70908  Biso   1.000  H 
  C167     1.0000 0.39198  0.15501  0.90547  Biso   1.000  C 
  H407     1.0000 0.42672  0.16706  0.92622  Biso   1.000  H 
  C168     1.0000 0.38199  0.10185  0.91955  Biso   1.000  C 
  H408     1.0000 0.36082  0.17837  0.92039  Biso   1.000  H 
  H409     1.0000 0.41089  0.23789  0.86874  Biso   1.000  H 
  H410     1.0000 0.57019  0.26304  0.60378  Biso   1.000  H 
  H411     1.0000 0.41704  0.13063  0.82890  Biso   1.000  H 
  H412     1.0000 0.35835  0.16362  0.83242  Biso   1.000  H 
  H413     1.0000 0.58777  0.35849  0.64092  Biso   1.000  H 
  H414     1.0000 0.64010  0.31093  0.62858  Biso   1.000  H 
  H415     1.0000 0.60840  0.40524  0.70651  Biso   1.000  H 
  H416     1.0000 0.67231  0.38559  0.70623  Biso   1.000  H 
  H417     1.0000 0.41671  0.07851  0.91245  Biso   1.000  H 
  H418     1.0000 0.34925  0.08960  0.89830  Biso   1.000  H 
  H419     1.0000 0.63525  0.37919  0.75958  Biso   1.000  H 
  H420     1.0000 0.37241  0.09836  0.96012  Biso   1.000  H 
  B561     1.0000 0.50000  0.07190  0.36740  Biso   1.000  B 
  B562     1.0000 0.50000  0.11720  0.38280  Biso   1.000  B 
  B563     1.0000 0.50000  0.13260  0.42810  Biso   1.000  B 
  B564     1.0000 0.50000  0.15650  0.34350  Biso   1.000  B 
  B565     1.0000 0.50000  0.14470  0.29420  Biso   1.000  B 
  B566     1.0000 0.50000  0.20580  0.35530  Biso   1.000  B 
  B567     1.0000 0.50000  0.17950  0.25800  Biso   1.000  B 
  B568     1.0000 0.50000  0.11140  0.28510  Biso   1.000  B 
  B569     1.0000 0.50000  0.24200  0.32050  Biso   1.000  B 
  B570     1.0000 0.50000  0.21490  0.38860  Biso   1.000  B 
  B571     1.0000 0.50000  0.23070  0.26930  Biso   1.000  B 
  B572     1.0000 0.50000  0.26930  0.23070  Biso   1.000  B 
  B573     1.0000 0.50000  0.16950  0.22490  Biso   1.000  B 
  B574     1.0000 0.50000  0.25800  0.17950  Biso   1.000  B 
  N43      1.0000 0.47692  0.28947  0.33889  Biso   1.000  N 
  B575     1.0000 0.50000  0.32050  0.24200  Biso   1.000  B 
  B576     1.0000 0.50000  0.29420  0.14470  Biso   1.000  B 
  N44      1.0000 0.52229  0.20817  0.16127  Biso   1.000  N 
  B577     1.0000 0.50000  0.35530  0.20580  Biso   1.000  B 
  B578     1.0000 0.50000  0.33050  0.27510  Biso   1.000  B 
  B579     1.0000 0.50000  0.34350  0.15650  Biso   1.000  B 
  B580     1.0000 0.50000  0.38280  0.11720  Biso   1.000  B 
  B581     1.0000 0.50000  0.28510  0.11140  Biso   1.000  B 
  B582     1.0000 0.50000  0.38860  0.21490  Biso   1.000  B 
  B583     1.0000 0.50000  0.36740  0.07190  Biso   1.000  B 
  B584     1.0000 0.50000  0.42810  0.13260  Biso   1.000  B 
  C169     1.0000 0.57754  0.21106  0.16044  Biso   1.000  C 
  C170     1.0000 0.42617  0.27596  0.35575  Biso   1.000  C 
  C171     1.0000 0.60344  0.16146  0.15152  Biso   1.000  C 
  C172     1.0000 0.39336  0.32078  0.34915  Biso   1.000  C 
  H421     1.0000 0.49994  0.30612  0.36406  Biso   1.000  H 
  H422     1.0000 0.50903  0.20137  0.12586  Biso   1.000  H 
  C173     1.0000 0.37719  0.32387  0.29357  Biso   1.000  C 
  H423     1.0000 0.40989  0.24249  0.33722  Biso   1.000  H 
  H424     1.0000 0.59118  0.22533  0.19720  Biso   1.000  H 
  H425     1.0000 0.40732  0.31113  0.27079  Biso   1.000  H 
  C174     1.0000 0.36417  0.37697  0.27917  Biso   1.000  C 
  H426     1.0000 0.34520  0.29816  0.29067  Biso   1.000  H 
  C175     1.0000 0.60802  0.15501  0.09454  Biso   1.000  C 
  H427     1.0000 0.57329  0.16706  0.07378  Biso   1.000  H 
  C176     1.0000 0.61799  0.10185  0.08045  Biso   1.000  C 
  H428     1.0000 0.63918  0.17836  0.07962  Biso   1.000  H 
  H429     1.0000 0.58912  0.23789  0.13126  Biso   1.000  H 
  H430     1.0000 0.42970  0.26330  0.39614  Biso   1.000  H 
  H431     1.0000 0.58296  0.13063  0.17110  Biso   1.000  H 
  H432     1.0000 0.64165  0.16362  0.16758  Biso   1.000  H 
  H433     1.0000 0.41220  0.35875  0.35841  Biso   1.000  H 
  H434     1.0000 0.35990  0.31126  0.37115  Biso   1.000  H 
  H435     1.0000 0.39118  0.40521  0.29238  Biso   1.000  H 
  H436     1.0000 0.32733  0.38542  0.29420  Biso   1.000  H 
  H437     1.0000 0.58327  0.07851  0.08756  Biso   1.000  H 
  H438     1.0000 0.65073  0.08959  0.10170  Biso   1.000  H 
  H439     1.0000 0.36300  0.37897  0.24004  Biso   1.000  H 
  H440     1.0000 0.62757  0.09836  0.03988  Biso   1.000  H 
  B585     1.0000 0.50000  0.92810  0.36740  Biso   1.000  B 
  B586     1.0000 0.50000  0.88280  0.38280  Biso   1.000  B 
  B587     1.0000 0.50000  0.86740  0.42810  Biso   1.000  B 
  B588     1.0000 0.50000  0.84350  0.34350  Biso   1.000  B 
  B589     1.0000 0.50000  0.85530  0.29420  Biso   1.000  B 
  B590     1.0000 0.50000  0.79420  0.35530  Biso   1.000  B 
  B591     1.0000 0.50000  0.82050  0.25800  Biso   1.000  B 
  B592     1.0000 0.50000  0.88860  0.28510  Biso   1.000  B 
  B593     1.0000 0.50000  0.75800  0.32050  Biso   1.000  B 
  B594     1.0000 0.50000  0.78510  0.38860  Biso   1.000  B 
  B595     1.0000 0.50000  0.76930  0.26930  Biso   1.000  B 
  B596     1.0000 0.50000  0.73070  0.23070  Biso   1.000  B 
  B597     1.0000 0.50000  0.83050  0.22490  Biso   1.000  B 
  B598     1.0000 0.50000  0.74200  0.17950  Biso   1.000  B 
  N45      1.0000 0.52309  0.71054  0.33889  Biso   1.000  N 
  B599     1.0000 0.50000  0.67950  0.24200  Biso   1.000  B 
  B600     1.0000 0.50000  0.70580  0.14470  Biso   1.000  B 
  N46      1.0000 0.47771  0.79183  0.16127  Biso   1.000  N 
  B601     1.0000 0.50000  0.64470  0.20580  Biso   1.000  B 
  B602     1.0000 0.50000  0.66950  0.27510  Biso   1.000  B 
  B603     1.0000 0.50000  0.65650  0.15650  Biso   1.000  B 
  B604     1.0000 0.50000  0.61720  0.11720  Biso   1.000  B 
  B605     1.0000 0.50000  0.71490  0.11140  Biso   1.000  B 
  B606     1.0000 0.50000  0.61140  0.21490  Biso   1.000  B 
  B607     1.0000 0.50000  0.63260  0.07190  Biso   1.000  B 
  B608     1.0000 0.50000  0.57190  0.13260  Biso   1.000  B 
  C177     1.0000 0.42246  0.78894  0.16045  Biso   1.000  C 
  C178     1.0000 0.57379  0.72409  0.35582  Biso   1.000  C 
  C179     1.0000 0.39656  0.83854  0.15152  Biso   1.000  C 
  C180     1.0000 0.60664  0.67932  0.34921  Biso   1.000  C 
  H441     1.0000 0.50004  0.69386  0.36402  Biso   1.000  H 
  H442     1.0000 0.49097  0.79863  0.12586  Biso   1.000  H 
  C181     1.0000 0.62280  0.67625  0.29362  Biso   1.000  C 
  H443     1.0000 0.59009  0.75758  0.33736  Biso   1.000  H 
  H444     1.0000 0.40882  0.77467  0.19721  Biso   1.000  H 
  H445     1.0000 0.59274  0.68912  0.27082  Biso   1.000  H 
  C182     1.0000 0.63564  0.62316  0.27919  Biso   1.000  C 
  H446     1.0000 0.65489  0.70185  0.29078  Biso   1.000  H 
  C183     1.0000 0.39198  0.84498  0.09454  Biso   1.000  C 
  H447     1.0000 0.42671  0.83293  0.07378  Biso   1.000  H 
  C184     1.0000 0.38200  0.89814  0.08044  Biso   1.000  C 
  H448     1.0000 0.36081  0.82164  0.07962  Biso   1.000  H 
  H449     1.0000 0.41088  0.76210  0.13127  Biso   1.000  H 
  H450     1.0000 0.57021  0.73669  0.39623  Biso   1.000  H 
  H451     1.0000 0.41704  0.86937  0.17109  Biso   1.000  H 
  H452     1.0000 0.35835  0.83638  0.16758  Biso   1.000  H 
  H453     1.0000 0.58784  0.64134  0.35852  Biso   1.000  H 
  H454     1.0000 0.64012  0.68888  0.37117  Biso   1.000  H 
  H455     1.0000 0.60843  0.59516  0.29243  Biso   1.000  H 
  H456     1.0000 0.67244  0.61447  0.29420  Biso   1.000  H 
  H457     1.0000 0.41673  0.92148  0.08754  Biso   1.000  H 
  H458     1.0000 0.34927  0.91041  0.10171  Biso   1.000  H 
  H459     1.0000 0.63673  0.62114  0.24005  Biso   1.000  H 
  H460     1.0000 0.37242  0.90164  0.03988  Biso   1.000  H 
  B609     1.0000 0.50000  0.92810  0.63260  Biso   1.000  B 
  B610     1.0000 0.50000  0.88280  0.61720  Biso   1.000  B 
  B611     1.0000 0.50000  0.86740  0.57190  Biso   1.000  B 
  B612     1.0000 0.50000  0.84350  0.65650  Biso   1.000  B 
  B613     1.0000 0.50000  0.85530  0.70580  Biso   1.000  B 
  B614     1.0000 0.50000  0.79420  0.64470  Biso   1.000  B 
  B615     1.0000 0.50000  0.82050  0.74200  Biso   1.000  B 
  B616     1.0000 0.50000  0.88860  0.71490  Biso   1.000  B 
  B617     1.0000 0.50000  0.75800  0.67950  Biso   1.000  B 
  B618     1.0000 0.50000  0.78510  0.61140  Biso   1.000  B 
  B619     1.0000 0.50000  0.76930  0.73070  Biso   1.000  B 
  B620     1.0000 0.50000  0.73070  0.76930  Biso   1.000  B 
  B621     1.0000 0.50000  0.83050  0.77510  Biso   1.000  B 
  B622     1.0000 0.50000  0.74200  0.82050  Biso   1.000  B 
  N47      1.0000 0.47689  0.71057  0.66109  Biso   1.000  N 
  B623     1.0000 0.50000  0.67950  0.75800  Biso   1.000  B 
  B624     1.0000 0.50000  0.70580  0.85530  Biso   1.000  B 
  N48      1.0000 0.52229  0.79183  0.83873  Biso   1.000  N 
  B625     1.0000 0.50000  0.64470  0.79420  Biso   1.000  B 
  B626     1.0000 0.50000  0.66950  0.72490  Biso   1.000  B 
  B627     1.0000 0.50000  0.65650  0.84350  Biso   1.000  B 
  B628     1.0000 0.50000  0.61720  0.88280  Biso   1.000  B 
  B629     1.0000 0.50000  0.71490  0.88860  Biso   1.000  B 
  B630     1.0000 0.50000  0.61140  0.78510  Biso   1.000  B 
  B631     1.0000 0.50000  0.63260  0.92810  Biso   1.000  B 
  B632     1.0000 0.50000  0.57190  0.86740  Biso   1.000  B 
  C185     1.0000 0.57754  0.78894  0.83956  Biso   1.000  C 
  C186     1.0000 0.42623  0.72420  0.64408  Biso   1.000  C 
  C187     1.0000 0.60344  0.83854  0.84849  Biso   1.000  C 
  C188     1.0000 0.39337  0.67945  0.65052  Biso   1.000  C 
  H461     1.0000 0.49995  0.69389  0.63598  Biso   1.000  H 
  H462     1.0000 0.50903  0.79864  0.87414  Biso   1.000  H 
  C189     1.0000 0.37732  0.67620  0.70615  Biso   1.000  C 
  H463     1.0000 0.40991  0.75766  0.66261  Biso   1.000  H 
  H464     1.0000 0.59118  0.77466  0.80280  Biso   1.000  H 
  H465     1.0000 0.40733  0.68916  0.72897  Biso   1.000  H 
  C190     1.0000 0.36485  0.62305  0.72051  Biso   1.000  C 
  H466     1.0000 0.34511  0.70168  0.70904  Biso   1.000  H 
  C191     1.0000 0.60802  0.84499  0.90547  Biso   1.000  C 
  H467     1.0000 0.57328  0.83294  0.92622  Biso   1.000  H 
  C192     1.0000 0.61800  0.89814  0.91955  Biso   1.000  C 
  H468     1.0000 0.63918  0.82163  0.92039  Biso   1.000  H 
  H469     1.0000 0.58911  0.76211  0.86874  Biso   1.000  H 
  H470     1.0000 0.42987  0.73688  0.60371  Biso   1.000  H 
  H471     1.0000 0.58296  0.86937  0.82891  Biso   1.000  H 
  H472     1.0000 0.64165  0.83638  0.83242  Biso   1.000  H 
  H473     1.0000 0.41218  0.64153  0.64099  Biso   1.000  H 
  H474     1.0000 0.35988  0.68912  0.62863  Biso   1.000  H 
  H475     1.0000 0.39186  0.59511  0.70673  Biso   1.000  H 
  H476     1.0000 0.32782  0.61435  0.70612  Biso   1.000  H 
  H477     1.0000 0.58329  0.92149  0.91245  Biso   1.000  H 
  H478     1.0000 0.65074  0.91040  0.89830  Biso   1.000  H 
  H479     1.0000 0.36455  0.62096  0.75966  Biso   1.000  H 
  H480     1.0000 0.62759  0.90164  0.96012  Biso   1.000  H 
