data_image0
_cell_length_a       20.7004
_cell_length_b       20.7004
_cell_length_c       20.7004
_cell_angle_alpha    90
_cell_angle_beta     90
_cell_angle_gamma    90

_symmetry_space_group_name_H-M    "P 1"
_symmetry_int_tables_number       1

loop_
  _symmetry_equiv_pos_as_xyz
  'x, y, z'

loop_
  _atom_site_label
  _atom_site_occupancy
  _atom_site_fract_x
  _atom_site_fract_y
  _atom_site_fract_z
  _atom_site_thermal_displace_type
  _atom_site_B_iso_or_equiv
  _atom_site_type_symbol
  Zr1      1.0000 0.11989  0.00000  0.00000  Biso   1.000  Zr
  Zr2      1.0000 0.11989  0.50000  0.50000  Biso   1.000  Zr
  Zr3      1.0000 0.61989  0.00000  0.50000  Biso   1.000  Zr
  Zr4      1.0000 0.61989  0.50000  0.00000  Biso   1.000  Zr
  Zr5      1.0000 0.88011  0.00000  0.00000  Biso   1.000  Zr
  Zr6      1.0000 0.88011  0.50000  0.50000  Biso   1.000  Zr
  Zr7      1.0000 0.38011  0.00000  0.50000  Biso   1.000  Zr
  Zr8      1.0000 0.38011  0.50000  0.00000  Biso   1.000  Zr
  Zr9      1.0000 0.00000  0.11989  0.00000  Biso   1.000  Zr
  Zr10     1.0000 0.00000  0.61989  0.50000  Biso   1.000  Zr
  Zr11     1.0000 0.50000  0.11989  0.50000  Biso   1.000  Zr
  Zr12     1.0000 0.50000  0.61989  0.00000  Biso   1.000  Zr
  Zr13     1.0000 0.00000  0.88011  0.00000  Biso   1.000  Zr
  Zr14     1.0000 0.00000  0.38011  0.50000  Biso   1.000  Zr
  Zr15     1.0000 0.50000  0.88011  0.50000  Biso   1.000  Zr
  Zr16     1.0000 0.50000  0.38011  0.00000  Biso   1.000  Zr
  Zr17     1.0000 0.00000  0.00000  0.11989  Biso   1.000  Zr
  Zr18     1.0000 0.00000  0.50000  0.61989  Biso   1.000  Zr
  Zr19     1.0000 0.50000  0.00000  0.61989  Biso   1.000  Zr
  Zr20     1.0000 0.50000  0.50000  0.11989  Biso   1.000  Zr
  Zr21     1.0000 0.00000  0.00000  0.88011  Biso   1.000  Zr
  Zr22     1.0000 0.00000  0.50000  0.38011  Biso   1.000  Zr
  Zr23     1.0000 0.50000  0.00000  0.38011  Biso   1.000  Zr
  Zr24     1.0000 0.50000  0.50000  0.88011  Biso   1.000  Zr
  O1       1.0000 0.05610  0.44390  0.44390  Biso   1.000  O 
  O2       1.0000 0.55610  0.94390  0.44390  Biso   1.000  O 
  O3       1.0000 0.55610  0.44390  0.94390  Biso   1.000  O 
  O4       1.0000 0.44390  0.05610  0.44390  Biso   1.000  O 
  O5       1.0000 0.44390  0.55610  0.94390  Biso   1.000  O 
  O6       1.0000 0.94390  0.94390  0.05610  Biso   1.000  O 
  O7       1.0000 0.94390  0.44390  0.55610  Biso   1.000  O 
  O8       1.0000 0.05610  0.05610  0.05610  Biso   1.000  O 
  O9       1.0000 0.55610  0.55610  0.05610  Biso   1.000  O 
  O10      1.0000 0.94390  0.05610  0.05610  Biso   1.000  O 
  O11      1.0000 0.94390  0.55610  0.55610  Biso   1.000  O 
  O12      1.0000 0.44390  0.05610  0.55610  Biso   1.000  O 
  O13      1.0000 0.44390  0.55610  0.05610  Biso   1.000  O 
  O14      1.0000 0.05610  0.94390  0.05610  Biso   1.000  O 
  O15      1.0000 0.05610  0.44390  0.55610  Biso   1.000  O 
  O16      1.0000 0.55610  0.94390  0.55610  Biso   1.000  O 
  O17      1.0000 0.55610  0.44390  0.05610  Biso   1.000  O 
  O18      1.0000 0.94390  0.94390  0.94390  Biso   1.000  O 
  O19      1.0000 0.94390  0.44390  0.44390  Biso   1.000  O 
  O20      1.0000 0.44390  0.94390  0.44390  Biso   1.000  O 
  O21      1.0000 0.44390  0.44390  0.94390  Biso   1.000  O 
  O22      1.0000 0.05610  0.05610  0.94390  Biso   1.000  O 
  O23      1.0000 0.05610  0.55610  0.44390  Biso   1.000  O 
  O24      1.0000 0.55610  0.05610  0.44390  Biso   1.000  O 
  C1       1.0000 0.15360  0.00000  0.84640  Biso   1.000  C 
  O25      1.0000 0.17046  0.00000  0.90471  Biso   1.000  O 
  O26      1.0000 0.09529  0.00000  0.82954  Biso   1.000  O 
  C2       1.0000 0.20500  0.00000  0.79500  Biso   1.000  C 
  C3       1.0000 0.18437  0.00000  0.73249  Biso   1.000  C 
  N1       1.0000 0.11440  0.98169  0.71534  Biso   1.000  N 
  H1       1.0000 0.22128  0.00000  0.63051  Biso   1.000  H 
  C4       1.0000 0.23249  0.00000  0.68442  Biso   1.000  C 
  C5       1.0000 0.29500  0.00000  0.70500  Biso   1.000  C 
  C6       1.0000 0.31558  0.00000  0.76751  Biso   1.000  C 
  C7       1.0000 0.26751  0.00000  0.81563  Biso   1.000  C 
  H2       1.0000 0.27872  0.00000  0.86954  Biso   1.000  H 
  H3       1.0000 0.36949  0.00000  0.77872  Biso   1.000  H 
  O27      1.0000 0.40470  0.00000  0.67046  Biso   1.000  O 
  C8       1.0000 0.34640  0.00000  0.65360  Biso   1.000  C 
  O28      1.0000 0.32954  0.00000  0.59529  Biso   1.000  O 
  H4       1.0000 0.10753  0.93547  0.73625  Biso   1.000  H 
  C9       1.0000 0.10398  0.97555  0.64402  Biso   1.000  C 
  H5       1.0000 0.12251  0.01803  0.61769  Biso   1.000  H 
  C10      1.0000 0.03288  0.97432  0.62810  Biso   1.000  C 
  C11      1.0000 0.13649  0.91203  0.62169  Biso   1.000  C 
  C12      1.0000 0.09516  0.88269  0.57468  Biso   1.000  C 
  H6       1.0000 0.08699  0.83258  0.58982  Biso   1.000  H 
  H7       1.0000 0.12180  0.88186  0.52838  Biso   1.000  H 
  C13      1.0000 0.03602  0.92433  0.56996  Biso   1.000  C 
  H8       1.0000 0.01759  0.02174  0.61297  Biso   1.000  H 
  H9       1.0000 0.00278  0.96107  0.66990  Biso   1.000  H 
  H10      1.0000 0.99621  0.89015  0.57378  Biso   1.000  H 
  H11      1.0000 0.02949  0.94682  0.52266  Biso   1.000  H 
  H12      1.0000 0.14054  0.87620  0.66162  Biso   1.000  H 
  H13      1.0000 0.18526  0.91548  0.59923  Biso   1.000  H 
  C14      1.0000 0.15360  0.50000  0.34640  Biso   1.000  C 
  O29      1.0000 0.17046  0.50000  0.40471  Biso   1.000  O 
  O30      1.0000 0.09529  0.50000  0.32954  Biso   1.000  O 
  C15      1.0000 0.20500  0.50000  0.29500  Biso   1.000  C 
  C16      1.0000 0.18437  0.50000  0.23249  Biso   1.000  C 
  N2       1.0000 0.11489  0.48840  0.21146  Biso   1.000  N 
  H14      1.0000 0.22128  0.50000  0.13051  Biso   1.000  H 
  C17      1.0000 0.23249  0.50000  0.18442  Biso   1.000  C 
  C18      1.0000 0.29500  0.50000  0.20500  Biso   1.000  C 
  C19      1.0000 0.31558  0.50000  0.26751  Biso   1.000  C 
  C20      1.0000 0.26751  0.50000  0.31563  Biso   1.000  C 
  H15      1.0000 0.27872  0.50000  0.36954  Biso   1.000  H 
  H16      1.0000 0.36949  0.50000  0.27872  Biso   1.000  H 
  O31      1.0000 0.40470  0.50000  0.17046  Biso   1.000  O 
  C21      1.0000 0.34640  0.50000  0.15360  Biso   1.000  C 
  O32      1.0000 0.32954  0.50000  0.09529  Biso   1.000  O 
  H17      1.0000 0.09693  0.44767  0.23598  Biso   1.000  H 
  C22      1.0000 0.10678  0.47095  0.14160  Biso   1.000  C 
  H18      1.0000 0.12210  0.51204  0.11002  Biso   1.000  H 
  C23      1.0000 0.03455  0.45930  0.12857  Biso   1.000  C 
  C24      1.0000 0.14184  0.40487  0.12329  Biso   1.000  C 
  C25      1.0000 0.09979  0.37904  0.06554  Biso   1.000  C 
  H19      1.0000 0.09792  0.32584  0.07327  Biso   1.000  H 
  H20      1.0000 0.11971  0.39407  0.01837  Biso   1.000  H 
  C26      1.0000 0.03485  0.40806  0.07555  Biso   1.000  C 
  H21      1.0000 0.01144  0.50310  0.11028  Biso   1.000  H 
  H22      1.0000 0.00726  0.44410  0.17053  Biso   1.000  H 
  H23      1.0000 0.00534  0.36810  0.08970  Biso   1.000  H 
  H24      1.0000 0.01725  0.42840  0.02861  Biso   1.000  H 
  H25      1.0000 0.13351  0.37098  0.16532  Biso   1.000  H 
  H26      1.0000 0.19275  0.40400  0.10847  Biso   1.000  H 
  C27      1.0000 0.65360  0.00000  0.34640  Biso   1.000  C 
  O33      1.0000 0.67046  0.00000  0.40471  Biso   1.000  O 
  O34      1.0000 0.59529  0.00000  0.32954  Biso   1.000  O 
  C28      1.0000 0.70500  0.00000  0.29500  Biso   1.000  C 
  C29      1.0000 0.68437  0.00000  0.23249  Biso   1.000  C 
  N3       1.0000 0.61336  0.99537  0.21418  Biso   1.000  N 
  H27      1.0000 0.72128  0.00000  0.13051  Biso   1.000  H 
  C30      1.0000 0.73248  0.00000  0.18442  Biso   1.000  C 
  C31      1.0000 0.79499  0.00000  0.20500  Biso   1.000  C 
  C32      1.0000 0.81558  0.00000  0.26751  Biso   1.000  C 
  C33      1.0000 0.76751  0.00000  0.31563  Biso   1.000  C 
  H28      1.0000 0.77872  0.00000  0.36954  Biso   1.000  H 
  H29      1.0000 0.86949  0.00000  0.27872  Biso   1.000  H 
  O35      1.0000 0.90470  0.00000  0.17046  Biso   1.000  O 
  C34      1.0000 0.84639  0.00000  0.15360  Biso   1.000  C 
  O36      1.0000 0.82953  0.00000  0.09529  Biso   1.000  O 
  H30      1.0000 0.59500  0.95436  0.23711  Biso   1.000  H 
  C35      1.0000 0.60016  0.97825  0.14818  Biso   1.000  C 
  H31      1.0000 0.62292  0.01438  0.11998  Biso   1.000  H 
  C36      1.0000 0.52913  0.97741  0.13107  Biso   1.000  C 
  C37      1.0000 0.62443  0.90807  0.13290  Biso   1.000  C 
  C38      1.0000 0.58119  0.88019  0.08077  Biso   1.000  C 
  H32      1.0000 0.57503  0.82746  0.08656  Biso   1.000  H 
  H33      1.0000 0.60289  0.88663  0.03183  Biso   1.000  H 
  C39      1.0000 0.52152  0.92179  0.08025  Biso   1.000  C 
  H34      1.0000 0.51778  0.02190  0.10835  Biso   1.000  H 
  H35      1.0000 0.49858  0.97251  0.17566  Biso   1.000  H 
  H36      1.0000 0.47742  0.89610  0.08714  Biso   1.000  H 
  H37      1.0000 0.51939  0.94242  0.03188  Biso   1.000  H 
  H38      1.0000 0.62102  0.87401  0.17466  Biso   1.000  H 
  H39      1.0000 0.67466  0.90603  0.11281  Biso   1.000  H 
  C40      1.0000 0.65360  0.50000  0.84640  Biso   1.000  C 
  O37      1.0000 0.67046  0.50000  0.90471  Biso   1.000  O 
  O38      1.0000 0.59529  0.50000  0.82954  Biso   1.000  O 
  C41      1.0000 0.70500  0.50000  0.79500  Biso   1.000  C 
  C42      1.0000 0.68437  0.50000  0.73249  Biso   1.000  C 
  N4       1.0000 0.61404  0.48735  0.71278  Biso   1.000  N 
  H40      1.0000 0.72128  0.50000  0.63051  Biso   1.000  H 
  C43      1.0000 0.73248  0.50000  0.68442  Biso   1.000  C 
  C44      1.0000 0.79499  0.50000  0.70500  Biso   1.000  C 
  C45      1.0000 0.81558  0.50000  0.76751  Biso   1.000  C 
  C46      1.0000 0.76751  0.50000  0.81563  Biso   1.000  C 
  H41      1.0000 0.77872  0.50000  0.86954  Biso   1.000  H 
  H42      1.0000 0.86949  0.50000  0.77872  Biso   1.000  H 
  O39      1.0000 0.90470  0.50000  0.67046  Biso   1.000  O 
  C47      1.0000 0.84639  0.50000  0.65360  Biso   1.000  C 
  O40      1.0000 0.82953  0.50000  0.59529  Biso   1.000  O 
  H43      1.0000 0.59704  0.44598  0.73679  Biso   1.000  H 
  C48      1.0000 0.60061  0.47280  0.64237  Biso   1.000  C 
  H44      1.0000 0.62443  0.51061  0.61253  Biso   1.000  H 
  C49      1.0000 0.52935  0.47297  0.62610  Biso   1.000  C 
  C50      1.0000 0.62129  0.40501  0.62209  Biso   1.000  C 
  C51      1.0000 0.58709  0.39299  0.55822  Biso   1.000  C 
  H45      1.0000 0.57068  0.34214  0.55095  Biso   1.000  H 
  H46      1.0000 0.61889  0.41039  0.51813  Biso   1.000  H 
  C52      1.0000 0.52313  0.43045  0.56416  Biso   1.000  C 
  H47      1.0000 0.51025  0.52005  0.61654  Biso   1.000  H 
  H48      1.0000 0.50357  0.45124  0.66786  Biso   1.000  H 
  H49      1.0000 0.48331  0.39436  0.56970  Biso   1.000  H 
  H50      1.0000 0.51624  0.45877  0.52044  Biso   1.000  H 
  H51      1.0000 0.60944  0.36764  0.65848  Biso   1.000  H 
  H52      1.0000 0.67383  0.40538  0.61339  Biso   1.000  H 
  C53      1.0000 0.84640  0.00000  0.84640  Biso   1.000  C 
  O41      1.0000 0.82954  0.00000  0.90471  Biso   1.000  O 
  O42      1.0000 0.90471  0.00000  0.82954  Biso   1.000  O 
  C54      1.0000 0.79500  0.00000  0.79500  Biso   1.000  C 
  C55      1.0000 0.81563  0.00000  0.73249  Biso   1.000  C 
  N5       1.0000 0.87397  0.95206  0.71333  Biso   1.000  N 
  H53      1.0000 0.77872  0.00000  0.63051  Biso   1.000  H 
  C56      1.0000 0.76752  0.00000  0.68442  Biso   1.000  C 
  C57      1.0000 0.70501  0.00000  0.70500  Biso   1.000  C 
  C58      1.0000 0.68442  0.00000  0.76751  Biso   1.000  C 
  C59      1.0000 0.73249  0.00000  0.81563  Biso   1.000  C 
  H54      1.0000 0.72128  0.00000  0.86954  Biso   1.000  H 
  H55      1.0000 0.63051  0.00000  0.77872  Biso   1.000  H 
  O43      1.0000 0.59530  0.00000  0.67046  Biso   1.000  O 
  C60      1.0000 0.65361  0.00000  0.65360  Biso   1.000  C 
  O44      1.0000 0.67047  0.00000  0.59529  Biso   1.000  O 
  H56      1.0000 0.89866  0.92667  0.75018  Biso   1.000  H 
  C61      1.0000 0.84437  0.89702  0.67115  Biso   1.000  C 
  H57      1.0000 0.81414  0.91476  0.63141  Biso   1.000  H 
  C62      1.0000 0.80727  0.84960  0.70961  Biso   1.000  C 
  C63      1.0000 0.88554  0.85261  0.62985  Biso   1.000  C 
  C64      1.0000 0.86319  0.78383  0.64192  Biso   1.000  C 
  H58      1.0000 0.88747  0.76649  0.68299  Biso   1.000  H 
  H59      1.0000 0.86687  0.74807  0.60436  Biso   1.000  H 
  C65      1.0000 0.79628  0.79253  0.66696  Biso   1.000  C 
  H60      1.0000 0.76025  0.86987  0.72210  Biso   1.000  H 
  H61      1.0000 0.83337  0.84031  0.75560  Biso   1.000  H 
  H62      1.0000 0.77971  0.74698  0.68849  Biso   1.000  H 
  H63      1.0000 0.76157  0.80364  0.62862  Biso   1.000  H 
  H64      1.0000 0.93489  0.86170  0.64387  Biso   1.000  H 
  H65      1.0000 0.88141  0.86424  0.57685  Biso   1.000  H 
  C66      1.0000 0.84640  0.50000  0.34640  Biso   1.000  C 
  O45      1.0000 0.82954  0.50000  0.40471  Biso   1.000  O 
  O46      1.0000 0.90471  0.50000  0.32954  Biso   1.000  O 
  C67      1.0000 0.79500  0.50000  0.29500  Biso   1.000  C 
  C68      1.0000 0.81563  0.50000  0.23249  Biso   1.000  C 
  N6       1.0000 0.87310  0.45594  0.21369  Biso   1.000  N 
  H66      1.0000 0.77872  0.50000  0.13051  Biso   1.000  H 
  C69      1.0000 0.76752  0.50000  0.18442  Biso   1.000  C 
  C70      1.0000 0.70501  0.50000  0.20500  Biso   1.000  C 
  C71      1.0000 0.68442  0.50000  0.26751  Biso   1.000  C 
  C72      1.0000 0.73249  0.50000  0.31563  Biso   1.000  C 
  H67      1.0000 0.72128  0.50000  0.36954  Biso   1.000  H 
  H68      1.0000 0.63051  0.50000  0.27872  Biso   1.000  H 
  O47      1.0000 0.59530  0.50000  0.17046  Biso   1.000  O 
  C73      1.0000 0.65361  0.50000  0.15360  Biso   1.000  C 
  O48      1.0000 0.67047  0.50000  0.09529  Biso   1.000  O 
  H69      1.0000 0.88861  0.42956  0.25298  Biso   1.000  H 
  C74      1.0000 0.84994  0.40491  0.16581  Biso   1.000  C 
  H70      1.0000 0.85389  0.42377  0.11473  Biso   1.000  H 
  C75      1.0000 0.78123  0.37395  0.17748  Biso   1.000  C 
  C76      1.0000 0.88565  0.34336  0.16965  Biso   1.000  C 
  C77      1.0000 0.85132  0.29352  0.13601  Biso   1.000  C 
  H71      1.0000 0.86944  0.24247  0.13615  Biso   1.000  H 
  H72      1.0000 0.85714  0.31146  0.09095  Biso   1.000  H 
  C78      1.0000 0.78281  0.30332  0.15828  Biso   1.000  C 
  H73      1.0000 0.74058  0.39521  0.15050  Biso   1.000  H 
  H74      1.0000 0.77131  0.37388  0.23068  Biso   1.000  H 
  H75      1.0000 0.77644  0.27229  0.20118  Biso   1.000  H 
  H76      1.0000 0.74604  0.29369  0.12475  Biso   1.000  H 
  H77      1.0000 0.89132  0.32879  0.22116  Biso   1.000  H 
  H78      1.0000 0.93002  0.35330  0.14395  Biso   1.000  H 
  C79      1.0000 0.34640  0.00000  0.34640  Biso   1.000  C 
  O49      1.0000 0.32954  0.00000  0.40471  Biso   1.000  O 
  O50      1.0000 0.40471  0.00000  0.32954  Biso   1.000  O 
  C80      1.0000 0.29500  0.00000  0.29500  Biso   1.000  C 
  C81      1.0000 0.31563  0.00000  0.23249  Biso   1.000  C 
  N7       1.0000 0.36610  0.94903  0.21357  Biso   1.000  N 
  H79      1.0000 0.27872  0.00000  0.13051  Biso   1.000  H 
  C82      1.0000 0.26751  0.00000  0.18442  Biso   1.000  C 
  C83      1.0000 0.20500  0.00000  0.20500  Biso   1.000  C 
  C84      1.0000 0.18442  0.00000  0.26751  Biso   1.000  C 
  C85      1.0000 0.23249  0.00000  0.31563  Biso   1.000  C 
  H80      1.0000 0.22128  0.00000  0.36954  Biso   1.000  H 
  H81      1.0000 0.13051  0.00000  0.27872  Biso   1.000  H 
  O51      1.0000 0.09530  0.00000  0.17046  Biso   1.000  O 
  C86      1.0000 0.15360  0.00000  0.15360  Biso   1.000  C 
  O52      1.0000 0.17046  0.00000  0.09529  Biso   1.000  O 
  H82      1.0000 0.38554  0.92600  0.25377  Biso   1.000  H 
  C87      1.0000 0.33909  0.89616  0.16715  Biso   1.000  C 
  H83      1.0000 0.33863  0.91408  0.11575  Biso   1.000  H 
  C88      1.0000 0.27153  0.86788  0.17919  Biso   1.000  C 
  C89      1.0000 0.37549  0.83762  0.17241  Biso   1.000  C 
  C90      1.0000 0.33970  0.78180  0.14771  Biso   1.000  C 
  H84      1.0000 0.35059  0.73411  0.16936  Biso   1.000  H 
  H85      1.0000 0.35561  0.77953  0.09936  Biso   1.000  H 
  C91      1.0000 0.27366  0.79900  0.15530  Biso   1.000  C 
  H86      1.0000 0.23096  0.89033  0.15140  Biso   1.000  H 
  H87      1.0000 0.26106  0.86787  0.23037  Biso   1.000  H 
  H88      1.0000 0.24978  0.76660  0.18961  Biso   1.000  H 
  H89      1.0000 0.24693  0.79194  0.11168  Biso   1.000  H 
  H90      1.0000 0.38348  0.82516  0.22395  Biso   1.000  H 
  H91      1.0000 0.41973  0.84540  0.14782  Biso   1.000  H 
  C92      1.0000 0.34640  0.50000  0.84640  Biso   1.000  C 
  O53      1.0000 0.32954  0.50000  0.90471  Biso   1.000  O 
  O54      1.0000 0.40471  0.50000  0.82954  Biso   1.000  O 
  C93      1.0000 0.29500  0.50000  0.79500  Biso   1.000  C 
  C94      1.0000 0.31563  0.50000  0.73249  Biso   1.000  C 
  N8       1.0000 0.36804  0.45004  0.71383  Biso   1.000  N 
  H92      1.0000 0.27872  0.50000  0.63051  Biso   1.000  H 
  C95      1.0000 0.26751  0.50000  0.68442  Biso   1.000  C 
  C96      1.0000 0.20500  0.50000  0.70500  Biso   1.000  C 
  C97      1.0000 0.18442  0.50000  0.76751  Biso   1.000  C 
  C98      1.0000 0.23249  0.50000  0.81563  Biso   1.000  C 
  H93      1.0000 0.22128  0.50000  0.86954  Biso   1.000  H 
  H94      1.0000 0.13051  0.50000  0.77872  Biso   1.000  H 
  O55      1.0000 0.09530  0.50000  0.67046  Biso   1.000  O 
  C99      1.0000 0.15360  0.50000  0.65360  Biso   1.000  C 
  O56      1.0000 0.17046  0.50000  0.59529  Biso   1.000  O 
  H95      1.0000 0.38613  0.42690  0.75474  Biso   1.000  H 
  C100     1.0000 0.34273  0.39678  0.67155  Biso   1.000  C 
  H96      1.0000 0.33666  0.41596  0.62163  Biso   1.000  H 
  C101     1.0000 0.28117  0.36276  0.68986  Biso   1.000  C 
  C102     1.0000 0.38819  0.34562  0.67376  Biso   1.000  C 
  C103     1.0000 0.35641  0.29285  0.64020  Biso   1.000  C 
  H97      1.0000 0.37836  0.24753  0.64705  Biso   1.000  H 
  H98      1.0000 0.36070  0.30775  0.59207  Biso   1.000  H 
  C104     1.0000 0.28659  0.29550  0.66166  Biso   1.000  C 
  H99      1.0000 0.23632  0.38503  0.66789  Biso   1.000  H 
  H100     1.0000 0.27671  0.36361  0.74332  Biso   1.000  H 
  H101     1.0000 0.27966  0.25533  0.69458  Biso   1.000  H 
  H102     1.0000 0.25136  0.29147  0.62211  Biso   1.000  H 
  H103     1.0000 0.39156  0.32834  0.72292  Biso   1.000  H 
  H104     1.0000 0.43286  0.36088  0.64863  Biso   1.000  H 
  C105     1.0000 0.84640  0.15360  0.00000  Biso   1.000  C 
  O57      1.0000 0.90471  0.17046  0.00000  Biso   1.000  O 
  O58      1.0000 0.82954  0.09529  0.00000  Biso   1.000  O 
  C106     1.0000 0.79500  0.20500  0.00000  Biso   1.000  C 
  C107     1.0000 0.73249  0.18437  0.00000  Biso   1.000  C 
  N9       1.0000 0.71457  0.11451  0.98362  Biso   1.000  N 
  H105     1.0000 0.63051  0.22128  0.00000  Biso   1.000  H 
  C108     1.0000 0.68442  0.23249  0.00000  Biso   1.000  C 
  C109     1.0000 0.70500  0.29500  0.00000  Biso   1.000  C 
  C110     1.0000 0.76751  0.31558  0.00000  Biso   1.000  C 
  C111     1.0000 0.81563  0.26751  0.00000  Biso   1.000  C 
  H106     1.0000 0.86954  0.27872  0.00000  Biso   1.000  H 
  H107     1.0000 0.77872  0.36949  0.00000  Biso   1.000  H 
  O59      1.0000 0.67046  0.40470  0.00000  Biso   1.000  O 
  C112     1.0000 0.65360  0.34640  0.00000  Biso   1.000  C 
  O60      1.0000 0.59529  0.32954  0.00000  Biso   1.000  O 
  H108     1.0000 0.73523  0.10184  0.93927  Biso   1.000  H 
  C113     1.0000 0.64507  0.09999  0.97642  Biso   1.000  C 
  H109     1.0000 0.61954  0.11986  0.01957  Biso   1.000  H 
  C114     1.0000 0.63329  0.02791  0.97587  Biso   1.000  C 
  C115     1.0000 0.62242  0.12425  0.90962  Biso   1.000  C 
  C116     1.0000 0.56651  0.08151  0.89278  Biso   1.000  C 
  H110     1.0000 0.56402  0.06989  0.84052  Biso   1.000  H 
  H111     1.0000 0.52124  0.10787  0.90590  Biso   1.000  H 
  C117     1.0000 0.57513  0.02075  0.93302  Biso   1.000  C 
  H112     1.0000 0.61687  0.01126  0.02159  Biso   1.000  H 
  H113     1.0000 0.67698  0.00046  0.96189  Biso   1.000  H 
  H114     1.0000 0.57698  0.97710  0.90207  Biso   1.000  H 
  H115     1.0000 0.53013  0.01751  0.96050  Biso   1.000  H 
  H116     1.0000 0.65938  0.11223  0.87274  Biso   1.000  H 
  H117     1.0000 0.61103  0.17742  0.90503  Biso   1.000  H 
  C118     1.0000 0.84640  0.65360  0.50000  Biso   1.000  C 
  O61      1.0000 0.90471  0.67046  0.50000  Biso   1.000  O 
  O62      1.0000 0.82954  0.59529  0.50000  Biso   1.000  O 
  C119     1.0000 0.79500  0.70500  0.50000  Biso   1.000  C 
  C120     1.0000 0.73249  0.68437  0.50000  Biso   1.000  C 
  N10      1.0000 0.71138  0.61624  0.48487  Biso   1.000  N 
  H118     1.0000 0.63051  0.72128  0.50000  Biso   1.000  H 
  C121     1.0000 0.68442  0.73248  0.50000  Biso   1.000  C 
  C122     1.0000 0.70500  0.79499  0.50000  Biso   1.000  C 
  C123     1.0000 0.76751  0.81558  0.50000  Biso   1.000  C 
  C124     1.0000 0.81563  0.76751  0.50000  Biso   1.000  C 
  H119     1.0000 0.86954  0.77872  0.50000  Biso   1.000  H 
  H120     1.0000 0.77872  0.86949  0.50000  Biso   1.000  H 
  O63      1.0000 0.67046  0.90470  0.50000  Biso   1.000  O 
  C125     1.0000 0.65360  0.84639  0.50000  Biso   1.000  C 
  O64      1.0000 0.59529  0.82953  0.50000  Biso   1.000  O 
  H121     1.0000 0.73628  0.60223  0.44272  Biso   1.000  H 
  C126     1.0000 0.64102  0.60977  0.47097  Biso   1.000  C 
  H122     1.0000 0.61596  0.62485  0.51656  Biso   1.000  H 
  C127     1.0000 0.62193  0.53879  0.46499  Biso   1.000  C 
  C128     1.0000 0.61648  0.63952  0.40532  Biso   1.000  C 
  C129     1.0000 0.56691  0.59241  0.37553  Biso   1.000  C 
  H123     1.0000 0.57703  0.58070  0.32427  Biso   1.000  H 
  H124     1.0000 0.51788  0.61231  0.38057  Biso   1.000  H 
  C130     1.0000 0.56897  0.53092  0.41363  Biso   1.000  C 
  H125     1.0000 0.60056  0.52399  0.51055  Biso   1.000  H 
  H126     1.0000 0.66558  0.50860  0.45633  Biso   1.000  H 
  H127     1.0000 0.58124  0.49206  0.38081  Biso   1.000  H 
  H128     1.0000 0.51956  0.51830  0.43499  Biso   1.000  H 
  H129     1.0000 0.65972  0.64365  0.37264  Biso   1.000  H 
  H130     1.0000 0.59476  0.68889  0.41071  Biso   1.000  H 
  C131     1.0000 0.34640  0.15360  0.50000  Biso   1.000  C 
  O65      1.0000 0.40471  0.17046  0.50000  Biso   1.000  O 
  O66      1.0000 0.32954  0.09529  0.50000  Biso   1.000  O 
  C132     1.0000 0.29500  0.20500  0.50000  Biso   1.000  C 
  C133     1.0000 0.23249  0.18437  0.50000  Biso   1.000  C 
  N11      1.0000 0.20990  0.11243  0.49053  Biso   1.000  N 
  H131     1.0000 0.13051  0.22128  0.50000  Biso   1.000  H 
  C134     1.0000 0.18442  0.23249  0.50000  Biso   1.000  C 
  C135     1.0000 0.20500  0.29500  0.50000  Biso   1.000  C 
  C136     1.0000 0.26751  0.31558  0.50000  Biso   1.000  C 
  C137     1.0000 0.31563  0.26751  0.50000  Biso   1.000  C 
  H132     1.0000 0.36954  0.27872  0.50000  Biso   1.000  H 
  H133     1.0000 0.27872  0.36949  0.50000  Biso   1.000  H 
  O67      1.0000 0.17046  0.40470  0.50000  Biso   1.000  O 
  C138     1.0000 0.15360  0.34640  0.50000  Biso   1.000  C 
  O68      1.0000 0.09529  0.32954  0.50000  Biso   1.000  O 
  H134     1.0000 0.23615  0.09355  0.45178  Biso   1.000  H 
  C139     1.0000 0.14053  0.09962  0.47673  Biso   1.000  C 
  H135     1.0000 0.11193  0.12234  0.51526  Biso   1.000  H 
  C140     1.0000 0.12020  0.02590  0.47457  Biso   1.000  C 
  C141     1.0000 0.12500  0.12296  0.40882  Biso   1.000  C 
  C142     1.0000 0.06992  0.08277  0.38239  Biso   1.000  C 
  H136     1.0000 0.07893  0.07307  0.32980  Biso   1.000  H 
  H137     1.0000 0.02451  0.11289  0.38609  Biso   1.000  H 
  C143     1.0000 0.06462  0.02325  0.42468  Biso   1.000  C 
  H138     1.0000 0.10926  0.00670  0.52040  Biso   1.000  H 
  H139     1.0000 0.16079  0.99630  0.45441  Biso   1.000  H 
  H140     1.0000 0.06842  0.97961  0.39433  Biso   1.000  H 
  H141     1.0000 0.01507  0.02291  0.45020  Biso   1.000  H 
  H142     1.0000 0.16671  0.11635  0.37523  Biso   1.000  H 
  H143     1.0000 0.10884  0.17432  0.40763  Biso   1.000  H 
  C144     1.0000 0.34640  0.65360  0.00000  Biso   1.000  C 
  O69      1.0000 0.40471  0.67046  0.00000  Biso   1.000  O 
  O70      1.0000 0.32954  0.59529  0.00000  Biso   1.000  O 
  C145     1.0000 0.29500  0.70500  0.00000  Biso   1.000  C 
  C146     1.0000 0.23249  0.68437  0.00000  Biso   1.000  C 
  N12      1.0000 0.21323  0.61593  0.97689  Biso   1.000  N 
  H144     1.0000 0.13051  0.72128  0.00000  Biso   1.000  H 
  C147     1.0000 0.18442  0.73248  0.00000  Biso   1.000  C 
  C148     1.0000 0.20500  0.79499  0.00000  Biso   1.000  C 
  C149     1.0000 0.26751  0.81558  0.00000  Biso   1.000  C 
  C150     1.0000 0.31563  0.76751  0.00000  Biso   1.000  C 
  H145     1.0000 0.36954  0.77872  0.00000  Biso   1.000  H 
  H146     1.0000 0.27872  0.86949  0.00000  Biso   1.000  H 
  O71      1.0000 0.17046  0.90470  0.00000  Biso   1.000  O 
  C151     1.0000 0.15360  0.84639  0.00000  Biso   1.000  C 
  O72      1.0000 0.09529  0.82953  0.00000  Biso   1.000  O 
  H147     1.0000 0.23584  0.60547  0.93294  Biso   1.000  H 
  C152     1.0000 0.14415  0.59613  0.96945  Biso   1.000  C 
  H148     1.0000 0.11646  0.61420  0.01107  Biso   1.000  H 
  C153     1.0000 0.12855  0.52320  0.96297  Biso   1.000  C 
  C154     1.0000 0.11739  0.62315  0.90567  Biso   1.000  C 
  C155     1.0000 0.06375  0.57876  0.88312  Biso   1.000  C 
  H149     1.0000 0.06561  0.57560  0.82964  Biso   1.000  H 
  H150     1.0000 0.01649  0.59868  0.89786  Biso   1.000  H 
  C156     1.0000 0.07160  0.51458  0.91471  Biso   1.000  C 
  H151     1.0000 0.11050  0.50597  0.00804  Biso   1.000  H 
  H152     1.0000 0.17230  0.49577  0.95251  Biso   1.000  H 
  H153     1.0000 0.07004  0.47715  0.87900  Biso   1.000  H 
  H154     1.0000 0.02766  0.50693  0.94449  Biso   1.000  H 
  H155     1.0000 0.15431  0.61836  0.86751  Biso   1.000  H 
  H156     1.0000 0.10312  0.67568  0.90791  Biso   1.000  H 
  C157     1.0000 0.84640  0.84640  0.00000  Biso   1.000  C 
  O73      1.0000 0.90471  0.82954  0.00000  Biso   1.000  O 
  O74      1.0000 0.82954  0.90471  0.00000  Biso   1.000  O 
  C158     1.0000 0.79500  0.79500  0.00000  Biso   1.000  C 
  C159     1.0000 0.73249  0.81563  0.00000  Biso   1.000  C 
  N13      1.0000 0.71403  0.86769  0.94645  Biso   1.000  N 
  H157     1.0000 0.63051  0.77872  0.00000  Biso   1.000  H 
  C160     1.0000 0.68442  0.76752  0.00000  Biso   1.000  C 
  C161     1.0000 0.70500  0.70501  0.00000  Biso   1.000  C 
  C162     1.0000 0.76751  0.68442  0.00000  Biso   1.000  C 
  C163     1.0000 0.81563  0.73249  0.00000  Biso   1.000  C 
  H158     1.0000 0.86954  0.72128  0.00000  Biso   1.000  H 
  H159     1.0000 0.77872  0.63051  0.00000  Biso   1.000  H 
  O75      1.0000 0.67046  0.59530  0.00000  Biso   1.000  O 
  C164     1.0000 0.65360  0.65361  0.00000  Biso   1.000  C 
  O76      1.0000 0.59529  0.67047  0.00000  Biso   1.000  O 
  H160     1.0000 0.75561  0.87925  0.92038  Biso   1.000  H 
  C165     1.0000 0.66763  0.84039  0.89335  Biso   1.000  C 
  H161     1.0000 0.61660  0.83758  0.91069  Biso   1.000  H 
  C166     1.0000 0.67509  0.77427  0.85989  Biso   1.000  C 
  C167     1.0000 0.67390  0.88157  0.83684  Biso   1.000  C 
  C168     1.0000 0.64907  0.85054  0.77955  Biso   1.000  C 
  H162     1.0000 0.66192  0.87601  0.73392  Biso   1.000  H 
  H163     1.0000 0.59928  0.85723  0.78488  Biso   1.000  H 
  C169     1.0000 0.66512  0.78392  0.78741  Biso   1.000  C 
  H164     1.0000 0.63792  0.74057  0.87619  Biso   1.000  H 
  H165     1.0000 0.72417  0.75681  0.87163  Biso   1.000  H 
  H166     1.0000 0.70495  0.78112  0.75339  Biso   1.000  H 
  H167     1.0000 0.62493  0.75171  0.77197  Biso   1.000  H 
  H168     1.0000 0.72606  0.88754  0.82743  Biso   1.000  H 
  H169     1.0000 0.64680  0.92654  0.84876  Biso   1.000  H 
  C170     1.0000 0.84640  0.34640  0.50000  Biso   1.000  C 
  O77      1.0000 0.90471  0.32954  0.50000  Biso   1.000  O 
  O78      1.0000 0.82954  0.40471  0.50000  Biso   1.000  O 
  C171     1.0000 0.79500  0.29500  0.50000  Biso   1.000  C 
  C172     1.0000 0.73249  0.31563  0.50000  Biso   1.000  C 
  N14      1.0000 0.71684  0.36810  0.44813  Biso   1.000  N 
  H170     1.0000 0.63051  0.27872  0.50000  Biso   1.000  H 
  C173     1.0000 0.68442  0.26751  0.50000  Biso   1.000  C 
  C174     1.0000 0.70500  0.20500  0.50000  Biso   1.000  C 
  C175     1.0000 0.76751  0.18442  0.50000  Biso   1.000  C 
  C176     1.0000 0.81563  0.23249  0.50000  Biso   1.000  C 
  H171     1.0000 0.86954  0.22128  0.50000  Biso   1.000  H 
  H172     1.0000 0.77872  0.13051  0.50000  Biso   1.000  H 
  O79      1.0000 0.67046  0.09530  0.50000  Biso   1.000  O 
  C177     1.0000 0.65360  0.15360  0.50000  Biso   1.000  C 
  O80      1.0000 0.59529  0.17046  0.50000  Biso   1.000  O 
  H173     1.0000 0.75820  0.37504  0.41975  Biso   1.000  H 
  C178     1.0000 0.66540  0.34324  0.39911  Biso   1.000  C 
  H174     1.0000 0.61553  0.35150  0.41828  Biso   1.000  H 
  C179     1.0000 0.67480  0.27409  0.37091  Biso   1.000  C 
  C180     1.0000 0.67013  0.38067  0.33983  Biso   1.000  C 
  C181     1.0000 0.64936  0.34371  0.28133  Biso   1.000  C 
  H175     1.0000 0.67294  0.35886  0.23669  Biso   1.000  H 
  H176     1.0000 0.60057  0.35579  0.27649  Biso   1.000  H 
  C182     1.0000 0.66204  0.27498  0.29885  Biso   1.000  C 
  H177     1.0000 0.64281  0.23308  0.38996  Biso   1.000  H 
  H178     1.0000 0.72554  0.25802  0.37820  Biso   1.000  H 
  H179     1.0000 0.70440  0.26582  0.27183  Biso   1.000  H 
  H180     1.0000 0.62600  0.24194  0.28021  Biso   1.000  H 
  H181     1.0000 0.72034  0.38949  0.33062  Biso   1.000  H 
  H182     1.0000 0.64143  0.42440  0.34516  Biso   1.000  H 
  C183     1.0000 0.34640  0.84640  0.50000  Biso   1.000  C 
  O81      1.0000 0.40471  0.82954  0.50000  Biso   1.000  O 
  O82      1.0000 0.32954  0.90471  0.50000  Biso   1.000  O 
  C184     1.0000 0.29500  0.79500  0.50000  Biso   1.000  C 
  C185     1.0000 0.23249  0.81563  0.50000  Biso   1.000  C 
  N15      1.0000 0.21616  0.87319  0.45364  Biso   1.000  N 
  H183     1.0000 0.13051  0.77872  0.50000  Biso   1.000  H 
  C186     1.0000 0.18442  0.76752  0.50000  Biso   1.000  C 
  C187     1.0000 0.20500  0.70501  0.50000  Biso   1.000  C 
  C188     1.0000 0.26751  0.68442  0.50000  Biso   1.000  C 
  C189     1.0000 0.31563  0.73249  0.50000  Biso   1.000  C 
  H184     1.0000 0.36954  0.72128  0.50000  Biso   1.000  H 
  H185     1.0000 0.27872  0.63051  0.50000  Biso   1.000  H 
  O83      1.0000 0.17046  0.59530  0.50000  Biso   1.000  O 
  C190     1.0000 0.15360  0.65361  0.50000  Biso   1.000  C 
  O84      1.0000 0.09529  0.67047  0.50000  Biso   1.000  O 
  H186     1.0000 0.25725  0.87779  0.42522  Biso   1.000  H 
  C191     1.0000 0.16691  0.84887  0.40426  Biso   1.000  C 
  H187     1.0000 0.11688  0.84953  0.42296  Biso   1.000  H 
  C192     1.0000 0.18323  0.78358  0.37057  Biso   1.000  C 
  C193     1.0000 0.17389  0.88683  0.34361  Biso   1.000  C 
  C194     1.0000 0.14279  0.85111  0.28926  Biso   1.000  C 
  H188     1.0000 0.15996  0.86652  0.24075  Biso   1.000  H 
  H189     1.0000 0.09306  0.86423  0.29772  Biso   1.000  H 
  C195     1.0000 0.15941  0.78222  0.30190  Biso   1.000  C 
  H190     1.0000 0.15929  0.74076  0.39267  Biso   1.000  H 
  H191     1.0000 0.23615  0.77766  0.37038  Biso   1.000  H 
  H192     1.0000 0.19636  0.76347  0.26993  Biso   1.000  H 
  H193     1.0000 0.11757  0.75062  0.29705  Biso   1.000  H 
  H194     1.0000 0.22677  0.89224  0.33344  Biso   1.000  H 
  H195     1.0000 0.14924  0.93095  0.35442  Biso   1.000  H 
  C196     1.0000 0.34640  0.34640  0.00000  Biso   1.000  C 
  O85      1.0000 0.40471  0.32954  0.00000  Biso   1.000  O 
  O86      1.0000 0.32954  0.40471  0.00000  Biso   1.000  O 
  C197     1.0000 0.29500  0.29500  0.00000  Biso   1.000  C 
  C198     1.0000 0.23249  0.31563  0.00000  Biso   1.000  C 
  N16      1.0000 0.21747  0.36684  0.94786  Biso   1.000  N 
  H196     1.0000 0.13051  0.27872  0.00000  Biso   1.000  H 
  C199     1.0000 0.18442  0.26751  0.00000  Biso   1.000  C 
  C200     1.0000 0.20500  0.20500  0.00000  Biso   1.000  C 
  C201     1.0000 0.26751  0.18442  0.00000  Biso   1.000  C 
  C202     1.0000 0.31563  0.23249  0.00000  Biso   1.000  C 
  H197     1.0000 0.36954  0.22128  0.00000  Biso   1.000  H 
  H198     1.0000 0.27872  0.13051  0.00000  Biso   1.000  H 
  O87      1.0000 0.17046  0.09530  0.00000  Biso   1.000  O 
  C203     1.0000 0.15360  0.15360  0.00000  Biso   1.000  C 
  O88      1.0000 0.09529  0.17046  0.00000  Biso   1.000  O 
  H199     1.0000 0.25888  0.37749  0.92159  Biso   1.000  H 
  C204     1.0000 0.17131  0.34140  0.89706  Biso   1.000  C 
  H200     1.0000 0.12231  0.34086  0.91847  Biso   1.000  H 
  C205     1.0000 0.18580  0.27523  0.86811  Biso   1.000  C 
  C206     1.0000 0.17008  0.38265  0.84046  Biso   1.000  C 
  C207     1.0000 0.15126  0.34937  0.78117  Biso   1.000  C 
  H201     1.0000 0.16675  0.37601  0.73777  Biso   1.000  H 
  H202     1.0000 0.10180  0.34805  0.78043  Biso   1.000  H 
  C208     1.0000 0.17542  0.28177  0.79268  Biso   1.000  C 
  H203     1.0000 0.15168  0.23495  0.88421  Biso   1.000  H 
  H204     1.0000 0.23529  0.25995  0.87856  Biso   1.000  H 
  H205     1.0000 0.22215  0.27842  0.76856  Biso   1.000  H 
  H206     1.0000 0.13999  0.24396  0.77662  Biso   1.000  H 
  H207     1.0000 0.22246  0.39203  0.83185  Biso   1.000  H 
  H208     1.0000 0.14282  0.42331  0.85113  Biso   1.000  H 
  C209     1.0000 0.00000  0.84640  0.15360  Biso   1.000  C 
  O89      1.0000 0.00000  0.90471  0.17046  Biso   1.000  O 
  O90      1.0000 0.00000  0.82954  0.09529  Biso   1.000  O 
  C210     1.0000 0.00000  0.79500  0.20500  Biso   1.000  C 
  C211     1.0000 0.00000  0.73249  0.18437  Biso   1.000  C 
  N17      1.0000 0.98798  0.71125  0.11316  Biso   1.000  N 
  H209     1.0000 0.00000  0.63051  0.22128  Biso   1.000  H 
  C212     1.0000 0.00000  0.68442  0.23249  Biso   1.000  C 
  C213     1.0000 0.00000  0.70500  0.29500  Biso   1.000  C 
  C214     1.0000 0.00000  0.76751  0.31558  Biso   1.000  C 
  C215     1.0000 0.00000  0.81563  0.26751  Biso   1.000  C 
  H210     1.0000 0.00000  0.86954  0.27872  Biso   1.000  H 
  H211     1.0000 0.00000  0.77872  0.36949  Biso   1.000  H 
  O91      1.0000 0.00000  0.67046  0.40470  Biso   1.000  O 
  C216     1.0000 0.00000  0.65360  0.34640  Biso   1.000  C 
  O92      1.0000 0.00000  0.59529  0.32954  Biso   1.000  O 
  H212     1.0000 0.94948  0.73874  0.09498  Biso   1.000  H 
  C217     1.0000 0.96874  0.64335  0.10059  Biso   1.000  C 
  H213     1.0000 0.00188  0.60696  0.12402  Biso   1.000  H 
  C218     1.0000 0.96674  0.62507  0.02938  Biso   1.000  C 
  C219     1.0000 0.90006  0.63122  0.12612  Biso   1.000  C 
  C220     1.0000 0.87850  0.57554  0.08566  Biso   1.000  C 
  H214     1.0000 0.82638  0.57804  0.07481  Biso   1.000  H 
  H215     1.0000 0.88833  0.53365  0.11767  Biso   1.000  H 
  C221     1.0000 0.91983  0.56856  0.02596  Biso   1.000  C 
  H216     1.0000 0.01417  0.60875  0.01125  Biso   1.000  H 
  H217     1.0000 0.95020  0.66637  0.00028  Biso   1.000  H 
  H218     1.0000 0.88827  0.56860  0.98381  Biso   1.000  H 
  H219     1.0000 0.94609  0.52107  0.02500  Biso   1.000  H 
  H220     1.0000 0.86894  0.67293  0.11245  Biso   1.000  H 
  H221     1.0000 0.89510  0.61995  0.17945  Biso   1.000  H 
  C222     1.0000 0.00000  0.34640  0.65360  Biso   1.000  C 
  O93      1.0000 0.00000  0.40471  0.67046  Biso   1.000  O 
  O94      1.0000 0.00000  0.32954  0.59529  Biso   1.000  O 
  C223     1.0000 0.00000  0.29500  0.70500  Biso   1.000  C 
  C224     1.0000 0.00000  0.23249  0.68437  Biso   1.000  C 
  N18      1.0000 0.97937  0.21279  0.61483  Biso   1.000  N 
  H222     1.0000 0.00000  0.13051  0.72128  Biso   1.000  H 
  C225     1.0000 0.00000  0.18442  0.73248  Biso   1.000  C 
  C226     1.0000 0.00000  0.20500  0.79499  Biso   1.000  C 
  C227     1.0000 0.00000  0.26751  0.81558  Biso   1.000  C 
  C228     1.0000 0.00000  0.31563  0.76751  Biso   1.000  C 
  H223     1.0000 0.00000  0.36954  0.77872  Biso   1.000  H 
  H224     1.0000 0.00000  0.27872  0.86949  Biso   1.000  H 
  O95      1.0000 0.00000  0.17046  0.90470  Biso   1.000  O 
  C229     1.0000 0.00000  0.15360  0.84639  Biso   1.000  C 
  O96      1.0000 0.00000  0.09529  0.82953  Biso   1.000  O 
  H225     1.0000 0.93353  0.23267  0.60639  Biso   1.000  H 
  C230     1.0000 0.97506  0.14192  0.60103  Biso   1.000  C 
  H226     1.0000 0.01859  0.11950  0.62347  Biso   1.000  H 
  C231     1.0000 0.96816  0.12417  0.52987  Biso   1.000  C 
  C232     1.0000 0.91285  0.11360  0.63071  Biso   1.000  C 
  C233     1.0000 0.89934  0.05539  0.58972  Biso   1.000  C 
  H227     1.0000 0.84676  0.04857  0.58518  Biso   1.000  H 
  H228     1.0000 0.91856  0.01061  0.60799  Biso   1.000  H 
  C234     1.0000 0.91445  0.07423  0.52085  Biso   1.000  C 
  H229     1.0000 0.01296  0.10351  0.51585  Biso   1.000  H 
  H230     1.0000 0.96062  0.16736  0.49829  Biso   1.000  H 
  H231     1.0000 0.87468  0.09970  0.50302  Biso   1.000  H 
  H232     1.0000 0.92454  0.03016  0.49078  Biso   1.000  H 
  H233     1.0000 0.87312  0.14899  0.62511  Biso   1.000  H 
  H234     1.0000 0.91484  0.09753  0.68232  Biso   1.000  H 
  C235     1.0000 0.50000  0.84640  0.65360  Biso   1.000  C 
  O97      1.0000 0.50000  0.90471  0.67046  Biso   1.000  O 
  O98      1.0000 0.50000  0.82954  0.59529  Biso   1.000  O 
  C236     1.0000 0.50000  0.79500  0.70500  Biso   1.000  C 
  C237     1.0000 0.50000  0.73249  0.68437  Biso   1.000  C 
  N19      1.0000 0.48984  0.71494  0.61270  Biso   1.000  N 
  H235     1.0000 0.50000  0.63051  0.72128  Biso   1.000  H 
  C238     1.0000 0.50000  0.68442  0.73248  Biso   1.000  C 
  C239     1.0000 0.50000  0.70500  0.79499  Biso   1.000  C 
  C240     1.0000 0.50000  0.76751  0.81558  Biso   1.000  C 
  C241     1.0000 0.50000  0.81563  0.76751  Biso   1.000  C 
  H236     1.0000 0.50000  0.86954  0.77872  Biso   1.000  H 
  H237     1.0000 0.50000  0.77872  0.86949  Biso   1.000  H 
  O99      1.0000 0.50000  0.67046  0.90470  Biso   1.000  O 
  C242     1.0000 0.50000  0.65360  0.84639  Biso   1.000  C 
  O100     1.0000 0.50000  0.59529  0.82953  Biso   1.000  O 
  H238     1.0000 0.44600  0.73668  0.59884  Biso   1.000  H 
  C243     1.0000 0.47749  0.64479  0.60094  Biso   1.000  C 
  H239     1.0000 0.51828  0.61638  0.62302  Biso   1.000  H 
  C244     1.0000 0.47563  0.62290  0.52760  Biso   1.000  C 
  C245     1.0000 0.40867  0.62250  0.62645  Biso   1.000  C 
  C246     1.0000 0.38858  0.56443  0.58824  Biso   1.000  C 
  H240     1.0000 0.33623  0.56793  0.58355  Biso   1.000  H 
  H241     1.0000 0.40243  0.51813  0.61152  Biso   1.000  H 
  C247     1.0000 0.42196  0.56988  0.52348  Biso   1.000  C 
  H242     1.0000 0.52067  0.60082  0.51718  Biso   1.000  H 
  H243     1.0000 0.46577  0.66221  0.49174  Biso   1.000  H 
  H244     1.0000 0.38644  0.57941  0.48604  Biso   1.000  H 
  H245     1.0000 0.44057  0.52154  0.51381  Biso   1.000  H 
  H246     1.0000 0.37455  0.66389  0.61801  Biso   1.000  H 
  H247     1.0000 0.40857  0.60927  0.67751  Biso   1.000  H 
  C248     1.0000 0.50000  0.34640  0.15360  Biso   1.000  C 
  O101     1.0000 0.50000  0.40471  0.17046  Biso   1.000  O 
  O102     1.0000 0.50000  0.32954  0.09529  Biso   1.000  O 
  C249     1.0000 0.50000  0.29500  0.20500  Biso   1.000  C 
  C250     1.0000 0.50000  0.23249  0.18437  Biso   1.000  C 
  N20      1.0000 0.48332  0.21251  0.11603  Biso   1.000  N 
  H248     1.0000 0.50000  0.13051  0.22128  Biso   1.000  H 
  C251     1.0000 0.50000  0.18442  0.23249  Biso   1.000  C 
  C252     1.0000 0.50000  0.20500  0.29500  Biso   1.000  C 
  C253     1.0000 0.50000  0.26751  0.31558  Biso   1.000  C 
  C254     1.0000 0.50000  0.31563  0.26751  Biso   1.000  C 
  H249     1.0000 0.50000  0.36954  0.27872  Biso   1.000  H 
  H250     1.0000 0.50000  0.27872  0.36949  Biso   1.000  H 
  O103     1.0000 0.50000  0.17046  0.40470  Biso   1.000  O 
  C255     1.0000 0.50000  0.15360  0.34640  Biso   1.000  C 
  O104     1.0000 0.50000  0.09529  0.32954  Biso   1.000  O 
  H251     1.0000 0.43869  0.23452  0.10407  Biso   1.000  H 
  C256     1.0000 0.47011  0.14061  0.10801  Biso   1.000  C 
  H252     1.0000 0.51387  0.11511  0.12786  Biso   1.000  H 
  C257     1.0000 0.47136  0.11957  0.03923  Biso   1.000  C 
  C258     1.0000 0.40502  0.11742  0.13635  Biso   1.000  C 
  C259     1.0000 0.37820  0.06365  0.09492  Biso   1.000  C 
  H253     1.0000 0.32849  0.07395  0.08038  Biso   1.000  H 
  H254     1.0000 0.38230  0.01898  0.12305  Biso   1.000  H 
  C260     1.0000 0.41856  0.06427  0.03494  Biso   1.000  C 
  H255     1.0000 0.51799  0.09868  0.02922  Biso   1.000  H 
  H256     1.0000 0.46756  0.16434  0.00849  Biso   1.000  H 
  H257     1.0000 0.39201  0.06620  0.98770  Biso   1.000  H 
  H258     1.0000 0.44212  0.01629  0.03720  Biso   1.000  H 
  H259     1.0000 0.36994  0.15814  0.13270  Biso   1.000  H 
  H260     1.0000 0.40755  0.10492  0.18908  Biso   1.000  H 
  C261     1.0000 0.00000  0.84640  0.84640  Biso   1.000  C 
  O105     1.0000 0.00000  0.90471  0.82954  Biso   1.000  O 
  O106     1.0000 0.00000  0.82954  0.90471  Biso   1.000  O 
  C262     1.0000 0.00000  0.79500  0.79500  Biso   1.000  C 
  C263     1.0000 0.00000  0.73249  0.81563  Biso   1.000  C 
  N21      1.0000 0.95503  0.71222  0.87102  Biso   1.000  N 
  H261     1.0000 0.00000  0.63051  0.77872  Biso   1.000  H 
  C264     1.0000 0.00000  0.68442  0.76752  Biso   1.000  C 
  C265     1.0000 0.00000  0.70500  0.70501  Biso   1.000  C 
  C266     1.0000 0.00000  0.76751  0.68442  Biso   1.000  C 
  C267     1.0000 0.00000  0.81563  0.73249  Biso   1.000  C 
  H262     1.0000 0.00000  0.86954  0.72128  Biso   1.000  H 
  H263     1.0000 0.00000  0.77872  0.63051  Biso   1.000  H 
  O107     1.0000 0.00000  0.67046  0.59530  Biso   1.000  O 
  C268     1.0000 0.00000  0.65360  0.65361  Biso   1.000  C 
  O108     1.0000 0.00000  0.59529  0.67047  Biso   1.000  O 
  H264     1.0000 0.93547  0.74823  0.89998  Biso   1.000  H 
  C269     1.0000 0.90034  0.67276  0.84642  Biso   1.000  C 
  H265     1.0000 0.91717  0.62250  0.84291  Biso   1.000  H 
  C270     1.0000 0.86841  0.69344  0.78294  Biso   1.000  C 
  C271     1.0000 0.84413  0.67531  0.88600  Biso   1.000  C 
  C272     1.0000 0.78538  0.65024  0.85254  Biso   1.000  C 
  H266     1.0000 0.73562  0.65996  0.86727  Biso   1.000  H 
  H267     1.0000 0.79177  0.59909  0.85864  Biso   1.000  H 
  C273     1.0000 0.79615  0.67193  0.78455  Biso   1.000  C 
  H268     1.0000 0.88749  0.66856  0.74149  Biso   1.000  H 
  H269     1.0000 0.87451  0.74639  0.78097  Biso   1.000  H 
  H270     1.0000 0.76448  0.71579  0.78111  Biso   1.000  H 
  H271     1.0000 0.78239  0.63543  0.75055  Biso   1.000  H 
  H272     1.0000 0.83539  0.72693  0.89206  Biso   1.000  H 
  H273     1.0000 0.85410  0.64780  0.92950  Biso   1.000  H 
  C274     1.0000 0.00000  0.34640  0.34640  Biso   1.000  C 
  O109     1.0000 0.00000  0.40471  0.32954  Biso   1.000  O 
  O110     1.0000 0.00000  0.32954  0.40471  Biso   1.000  O 
  C275     1.0000 0.00000  0.29500  0.29500  Biso   1.000  C 
  C276     1.0000 0.00000  0.23249  0.31563  Biso   1.000  C 
  N22      1.0000 0.94939  0.21391  0.36833  Biso   1.000  N 
  H274     1.0000 0.00000  0.13051  0.27872  Biso   1.000  H 
  C277     1.0000 0.00000  0.18442  0.26751  Biso   1.000  C 
  C278     1.0000 0.00000  0.20500  0.20500  Biso   1.000  C 
  C279     1.0000 0.00000  0.26751  0.18442  Biso   1.000  C 
  C280     1.0000 0.00000  0.31563  0.23249  Biso   1.000  C 
  H275     1.0000 0.00000  0.36954  0.22128  Biso   1.000  H 
  H276     1.0000 0.00000  0.27872  0.13051  Biso   1.000  H 
  O111     1.0000 0.00000  0.17046  0.09530  Biso   1.000  O 
  C281     1.0000 0.00000  0.15360  0.15360  Biso   1.000  C 
  O112     1.0000 0.00000  0.09529  0.17046  Biso   1.000  O 
  H277     1.0000 0.92655  0.25351  0.38942  Biso   1.000  H 
  C282     1.0000 0.89457  0.17852  0.33462  Biso   1.000  C 
  H278     1.0000 0.91175  0.12779  0.32501  Biso   1.000  H 
  C283     1.0000 0.85758  0.20346  0.27521  Biso   1.000  C 
  C284     1.0000 0.84024  0.17318  0.37925  Biso   1.000  C 
  C285     1.0000 0.78522  0.14835  0.34737  Biso   1.000  C 
  H279     1.0000 0.73819  0.16120  0.37147  Biso   1.000  H 
  H280     1.0000 0.79391  0.09753  0.35530  Biso   1.000  H 
  C286     1.0000 0.79171  0.16578  0.27877  Biso   1.000  C 
  H281     1.0000 0.88346  0.19564  0.22893  Biso   1.000  H 
  H282     1.0000 0.84952  0.25495  0.28299  Biso   1.000  H 
  H283     1.0000 0.74632  0.18229  0.25413  Biso   1.000  H 
  H284     1.0000 0.80484  0.11869  0.25482  Biso   1.000  H 
  H285     1.0000 0.82713  0.22326  0.39001  Biso   1.000  H 
  H286     1.0000 0.85417  0.14861  0.42378  Biso   1.000  H 
  C287     1.0000 0.50000  0.84640  0.34640  Biso   1.000  C 
  O113     1.0000 0.50000  0.90471  0.32954  Biso   1.000  O 
  O114     1.0000 0.50000  0.82954  0.40471  Biso   1.000  O 
  C288     1.0000 0.50000  0.79500  0.29500  Biso   1.000  C 
  C289     1.0000 0.50000  0.73249  0.31563  Biso   1.000  C 
  N23      1.0000 0.45458  0.71580  0.37058  Biso   1.000  N 
  H287     1.0000 0.50000  0.63051  0.27872  Biso   1.000  H 
  C290     1.0000 0.50000  0.68442  0.26751  Biso   1.000  C 
  C291     1.0000 0.50000  0.70500  0.20500  Biso   1.000  C 
  C292     1.0000 0.50000  0.76751  0.18442  Biso   1.000  C 
  C293     1.0000 0.50000  0.81563  0.23249  Biso   1.000  C 
  H288     1.0000 0.50000  0.86954  0.22128  Biso   1.000  H 
  H289     1.0000 0.50000  0.77872  0.13051  Biso   1.000  H 
  O115     1.0000 0.50000  0.67046  0.09530  Biso   1.000  O 
  C294     1.0000 0.50000  0.65360  0.15360  Biso   1.000  C 
  O116     1.0000 0.50000  0.59529  0.17046  Biso   1.000  O 
  H290     1.0000 0.43110  0.75504  0.39048  Biso   1.000  H 
  C295     1.0000 0.40062  0.67104  0.34632  Biso   1.000  C 
  H291     1.0000 0.41611  0.61971  0.34920  Biso   1.000  H 
  C296     1.0000 0.37277  0.68538  0.28098  Biso   1.000  C 
  C297     1.0000 0.34202  0.67910  0.38267  Biso   1.000  C 
  C298     1.0000 0.28431  0.65498  0.34741  Biso   1.000  C 
  H292     1.0000 0.23963  0.67347  0.37015  Biso   1.000  H 
  H293     1.0000 0.28371  0.60441  0.35103  Biso   1.000  H 
  C299     1.0000 0.30094  0.67651  0.28111  Biso   1.000  C 
  H294     1.0000 0.39193  0.65137  0.24369  Biso   1.000  H 
  H295     1.0000 0.38640  0.73600  0.26874  Biso   1.000  H 
  H296     1.0000 0.28132  0.72179  0.27318  Biso   1.000  H 
  H297     1.0000 0.28568  0.64505  0.24052  Biso   1.000  H 
  H298     1.0000 0.33379  0.73109  0.38923  Biso   1.000  H 
  H299     1.0000 0.35288  0.65140  0.42541  Biso   1.000  H 
  C300     1.0000 0.50000  0.34640  0.84640  Biso   1.000  C 
  O117     1.0000 0.50000  0.40471  0.82954  Biso   1.000  O 
  O118     1.0000 0.50000  0.32954  0.90471  Biso   1.000  O 
  C301     1.0000 0.50000  0.29500  0.79500  Biso   1.000  C 
  C302     1.0000 0.50000  0.23249  0.81563  Biso   1.000  C 
  N24      1.0000 0.45195  0.21533  0.87038  Biso   1.000  N 
  H300     1.0000 0.50000  0.13051  0.77872  Biso   1.000  H 
  C303     1.0000 0.50000  0.18442  0.76752  Biso   1.000  C 
  C304     1.0000 0.50000  0.20500  0.70501  Biso   1.000  C 
  C305     1.0000 0.50000  0.26751  0.68442  Biso   1.000  C 
  C306     1.0000 0.50000  0.31563  0.73249  Biso   1.000  C 
  H301     1.0000 0.50000  0.36954  0.72128  Biso   1.000  H 
  H302     1.0000 0.50000  0.27872  0.63051  Biso   1.000  H 
  O119     1.0000 0.50000  0.17046  0.59530  Biso   1.000  O 
  C307     1.0000 0.50000  0.15360  0.65361  Biso   1.000  C 
  O120     1.0000 0.50000  0.09529  0.67047  Biso   1.000  O 
  H303     1.0000 0.42721  0.25651  0.88519  Biso   1.000  H 
  C308     1.0000 0.40004  0.17328  0.84254  Biso   1.000  C 
  H304     1.0000 0.41570  0.12182  0.83616  Biso   1.000  H 
  C309     1.0000 0.36221  0.19898  0.78095  Biso   1.000  C 
  C310     1.0000 0.34647  0.17063  0.88772  Biso   1.000  C 
  C311     1.0000 0.29228  0.14176  0.85357  Biso   1.000  C 
  H305     1.0000 0.24212  0.14701  0.87238  Biso   1.000  H 
  H306     1.0000 0.30617  0.09346  0.85738  Biso   1.000  H 
  C312     1.0000 0.29992  0.16227  0.78208  Biso   1.000  C 
  H307     1.0000 0.38231  0.18763  0.73377  Biso   1.000  H 
  H308     1.0000 0.34943  0.25145  0.78918  Biso   1.000  H 
  H309     1.0000 0.25499  0.18660  0.76838  Biso   1.000  H 
  H310     1.0000 0.30491  0.11934  0.74948  Biso   1.000  H 
  H311     1.0000 0.33415  0.22069  0.89412  Biso   1.000  H 
  H312     1.0000 0.36070  0.14432  0.93190  Biso   1.000  H 
