data_image0
_cell_length_a       20.7004
_cell_length_b       20.7004
_cell_length_c       20.7004
_cell_angle_alpha    90
_cell_angle_beta     90
_cell_angle_gamma    90

_symmetry_space_group_name_H-M    "P 1"
_symmetry_int_tables_number       1

loop_
  _symmetry_equiv_pos_as_xyz
  'x, y, z'

loop_
  _atom_site_label
  _atom_site_occupancy
  _atom_site_fract_x
  _atom_site_fract_y
  _atom_site_fract_z
  _atom_site_thermal_displace_type
  _atom_site_B_iso_or_equiv
  _atom_site_type_symbol
  Zr1      1.0000 0.11989  0.00000  0.00000  Biso   1.000  Zr
  Zr2      1.0000 0.11989  0.50000  0.50000  Biso   1.000  Zr
  Zr3      1.0000 0.61989  0.00000  0.50000  Biso   1.000  Zr
  Zr4      1.0000 0.61989  0.50000  0.00000  Biso   1.000  Zr
  Zr5      1.0000 0.88011  0.00000  0.00000  Biso   1.000  Zr
  Zr6      1.0000 0.88011  0.50000  0.50000  Biso   1.000  Zr
  Zr7      1.0000 0.38011  0.00000  0.50000  Biso   1.000  Zr
  Zr8      1.0000 0.38011  0.50000  0.00000  Biso   1.000  Zr
  Zr9      1.0000 0.00000  0.11989  0.00000  Biso   1.000  Zr
  Zr10     1.0000 0.00000  0.61989  0.50000  Biso   1.000  Zr
  Zr11     1.0000 0.50000  0.11989  0.50000  Biso   1.000  Zr
  Zr12     1.0000 0.50000  0.61989  0.00000  Biso   1.000  Zr
  Zr13     1.0000 0.00000  0.88011  0.00000  Biso   1.000  Zr
  Zr14     1.0000 0.00000  0.38011  0.50000  Biso   1.000  Zr
  Zr15     1.0000 0.50000  0.88011  0.50000  Biso   1.000  Zr
  Zr16     1.0000 0.50000  0.38011  0.00000  Biso   1.000  Zr
  Zr17     1.0000 0.00000  0.00000  0.11989  Biso   1.000  Zr
  Zr18     1.0000 0.00000  0.50000  0.61989  Biso   1.000  Zr
  Zr19     1.0000 0.50000  0.00000  0.61989  Biso   1.000  Zr
  Zr20     1.0000 0.50000  0.50000  0.11989  Biso   1.000  Zr
  Zr21     1.0000 0.00000  0.00000  0.88011  Biso   1.000  Zr
  Zr22     1.0000 0.00000  0.50000  0.38011  Biso   1.000  Zr
  Zr23     1.0000 0.50000  0.00000  0.38011  Biso   1.000  Zr
  Zr24     1.0000 0.50000  0.50000  0.88011  Biso   1.000  Zr
  O1       1.0000 0.05610  0.44390  0.44390  Biso   1.000  O 
  O2       1.0000 0.55610  0.94390  0.44390  Biso   1.000  O 
  O3       1.0000 0.55610  0.44390  0.94390  Biso   1.000  O 
  O4       1.0000 0.44390  0.05610  0.44390  Biso   1.000  O 
  O5       1.0000 0.44390  0.55610  0.94390  Biso   1.000  O 
  O6       1.0000 0.94390  0.94390  0.05610  Biso   1.000  O 
  O7       1.0000 0.94390  0.44390  0.55610  Biso   1.000  O 
  O8       1.0000 0.05610  0.05610  0.05610  Biso   1.000  O 
  O9       1.0000 0.55610  0.55610  0.05610  Biso   1.000  O 
  O10      1.0000 0.94390  0.05610  0.05610  Biso   1.000  O 
  O11      1.0000 0.94390  0.55610  0.55610  Biso   1.000  O 
  O12      1.0000 0.44390  0.05610  0.55610  Biso   1.000  O 
  O13      1.0000 0.44390  0.55610  0.05610  Biso   1.000  O 
  O14      1.0000 0.05610  0.94390  0.05610  Biso   1.000  O 
  O15      1.0000 0.05610  0.44390  0.55610  Biso   1.000  O 
  O16      1.0000 0.55610  0.94390  0.55610  Biso   1.000  O 
  O17      1.0000 0.55610  0.44390  0.05610  Biso   1.000  O 
  O18      1.0000 0.94390  0.94390  0.94390  Biso   1.000  O 
  O19      1.0000 0.94390  0.44390  0.44390  Biso   1.000  O 
  O20      1.0000 0.44390  0.94390  0.44390  Biso   1.000  O 
  O21      1.0000 0.44390  0.44390  0.94390  Biso   1.000  O 
  O22      1.0000 0.05610  0.05610  0.94390  Biso   1.000  O 
  O23      1.0000 0.05610  0.55610  0.44390  Biso   1.000  O 
  O24      1.0000 0.55610  0.05610  0.44390  Biso   1.000  O 
  C1       1.0000 0.15360  0.00000  0.84640  Biso   1.000  C 
  O25      1.0000 0.17046  0.00000  0.90471  Biso   1.000  O 
  O26      1.0000 0.09529  0.00000  0.82954  Biso   1.000  O 
  C2       1.0000 0.20500  0.00000  0.79500  Biso   1.000  C 
  C3       1.0000 0.18437  0.00000  0.73249  Biso   1.000  C 
  H1       1.0000 0.13046  0.00000  0.72128  Biso   1.000  H 
  N1       1.0000 0.21352  0.99374  0.61927  Biso   1.000  N 
  C4       1.0000 0.23249  0.00000  0.68442  Biso   1.000  C 
  C5       1.0000 0.29500  0.00000  0.70500  Biso   1.000  C 
  C6       1.0000 0.31558  0.00000  0.76751  Biso   1.000  C 
  C7       1.0000 0.26751  0.00000  0.81563  Biso   1.000  C 
  N2       1.0000 0.27878  0.99219  0.87944  Biso   1.000  N 
  H2       1.0000 0.36949  0.00000  0.77872  Biso   1.000  H 
  O27      1.0000 0.40470  0.00000  0.67046  Biso   1.000  O 
  C8       1.0000 0.34640  0.00000  0.65360  Biso   1.000  C 
  O28      1.0000 0.32954  0.00000  0.59529  Biso   1.000  O 
  C9       1.0000 0.18313  0.93361  0.60567  Biso   1.000  C 
  C10      1.0000 0.18271  0.04955  0.59982  Biso   1.000  C 
  H3       1.0000 0.21773  0.08827  0.58908  Biso   1.000  H 
  H4       1.0000 0.14765  0.06833  0.63389  Biso   1.000  H 
  C11      1.0000 0.14556  0.02187  0.54800  Biso   1.000  C 
  C12      1.0000 0.13515  0.95224  0.56019  Biso   1.000  C 
  H5       1.0000 0.18354  0.02409  0.51336  Biso   1.000  H 
  H6       1.0000 0.10387  0.04396  0.52894  Biso   1.000  H 
  H7       1.0000 0.15791  0.91411  0.64936  Biso   1.000  H 
  H8       1.0000 0.21891  0.89698  0.59523  Biso   1.000  H 
  H9       1.0000 0.14336  0.92313  0.52263  Biso   1.000  H 
  H10      1.0000 0.08486  0.94493  0.57531  Biso   1.000  H 
  C13      1.0000 0.28893  0.92875  0.89294  Biso   1.000  C 
  C14      1.0000 0.31364  0.04029  0.90653  Biso   1.000  C 
  H11      1.0000 0.32514  0.07888  0.86898  Biso   1.000  H 
  C15      1.0000 0.37053  0.00389  0.92798  Biso   1.000  C 
  H12      1.0000 0.27977  0.06098  0.93823  Biso   1.000  H 
  H13      1.0000 0.39983  0.03161  0.89667  Biso   1.000  H 
  C16      1.0000 0.34115  0.93635  0.93313  Biso   1.000  C 
  H14      1.0000 0.40122  0.00134  0.96765  Biso   1.000  H 
  H15      1.0000 0.29253  0.89822  0.84621  Biso   1.000  H 
  H16      1.0000 0.24301  0.91063  0.91392  Biso   1.000  H 
  H17      1.0000 0.33755  0.93464  0.97766  Biso   1.000  H 
  H18      1.0000 0.34212  0.88932  0.92341  Biso   1.000  H 
  C17      1.0000 0.15360  0.50000  0.34640  Biso   1.000  C 
  O29      1.0000 0.17046  0.50000  0.40471  Biso   1.000  O 
  O30      1.0000 0.09529  0.50000  0.32954  Biso   1.000  O 
  C18      1.0000 0.20500  0.50000  0.29500  Biso   1.000  C 
  C19      1.0000 0.18437  0.50000  0.23249  Biso   1.000  C 
  H19      1.0000 0.13046  0.50000  0.22128  Biso   1.000  H 
  N3       1.0000 0.21349  0.49361  0.11926  Biso   1.000  N 
  C20      1.0000 0.23249  0.50000  0.18442  Biso   1.000  C 
  C21      1.0000 0.29500  0.50000  0.20500  Biso   1.000  C 
  C22      1.0000 0.31558  0.50000  0.26751  Biso   1.000  C 
  C23      1.0000 0.26751  0.50000  0.31563  Biso   1.000  C 
  N4       1.0000 0.27878  0.49221  0.37948  Biso   1.000  N 
  H20      1.0000 0.36949  0.50000  0.27872  Biso   1.000  H 
  O31      1.0000 0.40470  0.50000  0.17046  Biso   1.000  O 
  C24      1.0000 0.34640  0.50000  0.15360  Biso   1.000  C 
  O32      1.0000 0.32954  0.50000  0.09529  Biso   1.000  O 
  C25      1.0000 0.18313  0.43349  0.10566  Biso   1.000  C 
  C26      1.0000 0.18252  0.54936  0.09989  Biso   1.000  C 
  H21      1.0000 0.21746  0.58808  0.08889  Biso   1.000  H 
  H22      1.0000 0.14762  0.56817  0.13402  Biso   1.000  H 
  C27      1.0000 0.14539  0.52169  0.04797  Biso   1.000  C 
  C28      1.0000 0.13508  0.45201  0.06031  Biso   1.000  C 
  H23      1.0000 0.18320  0.52388  0.01328  Biso   1.000  H 
  H24      1.0000 0.10369  0.54370  0.02890  Biso   1.000  H 
  H25      1.0000 0.15791  0.41393  0.14948  Biso   1.000  H 
  H26      1.0000 0.21881  0.39680  0.09512  Biso   1.000  H 
  H27      1.0000 0.14332  0.42309  0.02261  Biso   1.000  H 
  H28      1.0000 0.08491  0.44480  0.07544  Biso   1.000  H 
  C29      1.0000 0.28903  0.42874  0.39299  Biso   1.000  C 
  C30      1.0000 0.31378  0.54034  0.40636  Biso   1.000  C 
  H29      1.0000 0.32537  0.57886  0.36853  Biso   1.000  H 
  C31      1.0000 0.37064  0.50393  0.42800  Biso   1.000  C 
  H30      1.0000 0.27973  0.56131  0.43795  Biso   1.000  H 
  H31      1.0000 0.39980  0.53142  0.39688  Biso   1.000  H 
  C32      1.0000 0.34114  0.43649  0.43314  Biso   1.000  C 
  H32      1.0000 0.40119  0.50140  0.46768  Biso   1.000  H 
  H33      1.0000 0.29266  0.39829  0.34617  Biso   1.000  H 
  H34      1.0000 0.24292  0.41076  0.41394  Biso   1.000  H 
  H35      1.0000 0.33768  0.43495  0.47778  Biso   1.000  H 
  H36      1.0000 0.34221  0.38937  0.42383  Biso   1.000  H 
  C33      1.0000 0.65360  0.00000  0.34640  Biso   1.000  C 
  O33      1.0000 0.67046  0.00000  0.40471  Biso   1.000  O 
  O34      1.0000 0.59529  0.00000  0.32954  Biso   1.000  O 
  C34      1.0000 0.70500  0.00000  0.29500  Biso   1.000  C 
  C35      1.0000 0.68437  0.00000  0.23249  Biso   1.000  C 
  H37      1.0000 0.63046  0.00000  0.22128  Biso   1.000  H 
  N5       1.0000 0.71351  0.99361  0.11923  Biso   1.000  N 
  C36      1.0000 0.73248  0.00000  0.18442  Biso   1.000  C 
  C37      1.0000 0.79499  0.00000  0.20500  Biso   1.000  C 
  C38      1.0000 0.81558  0.00000  0.26751  Biso   1.000  C 
  C39      1.0000 0.76751  0.00000  0.31563  Biso   1.000  C 
  N6       1.0000 0.77875  0.99221  0.37942  Biso   1.000  N 
  H38      1.0000 0.86949  0.00000  0.27872  Biso   1.000  H 
  O35      1.0000 0.90470  0.00000  0.17046  Biso   1.000  O 
  C40      1.0000 0.84639  0.00000  0.15360  Biso   1.000  C 
  O36      1.0000 0.82953  0.00000  0.09529  Biso   1.000  O 
  C41      1.0000 0.68313  0.93347  0.10570  Biso   1.000  C 
  C42      1.0000 0.68265  0.04931  0.09964  Biso   1.000  C 
  H39      1.0000 0.71786  0.08791  0.08866  Biso   1.000  H 
  H40      1.0000 0.64776  0.06818  0.13385  Biso   1.000  H 
  C43      1.0000 0.64551  0.02165  0.04792  Biso   1.000  C 
  C44      1.0000 0.63502  0.95207  0.06015  Biso   1.000  C 
  H41      1.0000 0.68363  0.02354  0.01328  Biso   1.000  H 
  H42      1.0000 0.60383  0.04338  0.02864  Biso   1.000  H 
  H43      1.0000 0.65796  0.91383  0.14946  Biso   1.000  H 
  H44      1.0000 0.71893  0.89701  0.09497  Biso   1.000  H 
  H45      1.0000 0.64343  0.92301  0.02267  Biso   1.000  H 
  H46      1.0000 0.58484  0.94495  0.07530  Biso   1.000  H 
  C45      1.0000 0.78897  0.92877  0.39292  Biso   1.000  C 
  C46      1.0000 0.81358  0.04032  0.40641  Biso   1.000  C 
  H47      1.0000 0.82527  0.07895  0.36888  Biso   1.000  H 
  C47      1.0000 0.87055  0.00409  0.42796  Biso   1.000  C 
  H48      1.0000 0.77983  0.06111  0.43808  Biso   1.000  H 
  H49      1.0000 0.89982  0.03193  0.39695  Biso   1.000  H 
  C48      1.0000 0.84118  0.93643  0.43301  Biso   1.000  C 
  H50      1.0000 0.90126  0.00146  0.46763  Biso   1.000  H 
  H51      1.0000 0.79258  0.89844  0.34595  Biso   1.000  H 
  H52      1.0000 0.74289  0.91042  0.41383  Biso   1.000  H 
  H53      1.0000 0.83753  0.93480  0.47762  Biso   1.000  H 
  H54      1.0000 0.84215  0.88938  0.42339  Biso   1.000  H 
  C49      1.0000 0.65360  0.50000  0.84640  Biso   1.000  C 
  O37      1.0000 0.67046  0.50000  0.90471  Biso   1.000  O 
  O38      1.0000 0.59529  0.50000  0.82954  Biso   1.000  O 
  C50      1.0000 0.70500  0.50000  0.79500  Biso   1.000  C 
  C51      1.0000 0.68437  0.50000  0.73249  Biso   1.000  C 
  H55      1.0000 0.63046  0.50000  0.72128  Biso   1.000  H 
  N7       1.0000 0.71354  0.49359  0.61922  Biso   1.000  N 
  C52      1.0000 0.73248  0.50000  0.68442  Biso   1.000  C 
  C53      1.0000 0.79499  0.50000  0.70500  Biso   1.000  C 
  C54      1.0000 0.81558  0.50000  0.76751  Biso   1.000  C 
  C55      1.0000 0.76751  0.50000  0.81563  Biso   1.000  C 
  N8       1.0000 0.77878  0.49212  0.87939  Biso   1.000  N 
  H56      1.0000 0.86949  0.50000  0.77872  Biso   1.000  H 
  O39      1.0000 0.90470  0.50000  0.67046  Biso   1.000  O 
  C56      1.0000 0.84639  0.50000  0.65360  Biso   1.000  C 
  O40      1.0000 0.82953  0.50000  0.59529  Biso   1.000  O 
  C57      1.0000 0.68324  0.43337  0.60573  Biso   1.000  C 
  C58      1.0000 0.68260  0.54922  0.59966  Biso   1.000  C 
  H57      1.0000 0.71765  0.58801  0.58880  Biso   1.000  H 
  H58      1.0000 0.64748  0.56797  0.63359  Biso   1.000  H 
  C59      1.0000 0.64553  0.52151  0.54789  Biso   1.000  C 
  C60      1.0000 0.63507  0.45196  0.56028  Biso   1.000  C 
  H59      1.0000 0.68388  0.52350  0.51328  Biso   1.000  H 
  H60      1.0000 0.60396  0.54344  0.52848  Biso   1.000  H 
  H61      1.0000 0.65823  0.41358  0.64957  Biso   1.000  H 
  H62      1.0000 0.71921  0.39696  0.59498  Biso   1.000  H 
  H63      1.0000 0.64316  0.42293  0.52285  Biso   1.000  H 
  H64      1.0000 0.58499  0.44487  0.57561  Biso   1.000  H 
  C61      1.0000 0.78902  0.42872  0.89287  Biso   1.000  C 
  C62      1.0000 0.81356  0.54032  0.90647  Biso   1.000  C 
  H65      1.0000 0.82519  0.57893  0.86882  Biso   1.000  H 
  C63      1.0000 0.87056  0.50407  0.92796  Biso   1.000  C 
  H66      1.0000 0.77984  0.56108  0.93816  Biso   1.000  H 
  H67      1.0000 0.89971  0.53192  0.89678  Biso   1.000  H 
  C64      1.0000 0.84116  0.43649  0.93305  Biso   1.000  C 
  H68      1.0000 0.90120  0.50156  0.96757  Biso   1.000  H 
  H69      1.0000 0.79258  0.39842  0.84594  Biso   1.000  H 
  H70      1.0000 0.74287  0.41051  0.91383  Biso   1.000  H 
  H71      1.0000 0.83766  0.43481  0.97770  Biso   1.000  H 
  H72      1.0000 0.84204  0.38934  0.92356  Biso   1.000  H 
  C65      1.0000 0.84640  0.00000  0.84640  Biso   1.000  C 
  O41      1.0000 0.82954  0.00000  0.90471  Biso   1.000  O 
  O42      1.0000 0.90471  0.00000  0.82954  Biso   1.000  O 
  C66      1.0000 0.79500  0.00000  0.79500  Biso   1.000  C 
  C67      1.0000 0.81563  0.00000  0.73249  Biso   1.000  C 
  H73      1.0000 0.86954  0.00000  0.72128  Biso   1.000  H 
  N9       1.0000 0.78659  0.99950  0.62439  Biso   1.000  N 
  C68      1.0000 0.76752  0.00000  0.68442  Biso   1.000  C 
  C69      1.0000 0.70501  0.00000  0.70500  Biso   1.000  C 
  C70      1.0000 0.68442  0.00000  0.76751  Biso   1.000  C 
  C71      1.0000 0.73249  0.00000  0.81563  Biso   1.000  C 
  N10      1.0000 0.71795  0.99985  0.88202  Biso   1.000  N 
  H74      1.0000 0.63051  0.00000  0.77872  Biso   1.000  H 
  O43      1.0000 0.59530  0.00000  0.67046  Biso   1.000  O 
  C72      1.0000 0.65361  0.00000  0.65360  Biso   1.000  C 
  O44      1.0000 0.67047  0.00000  0.59529  Biso   1.000  O 
  C73      1.0000 0.80212  0.05825  0.60431  Biso   1.000  C 
  C74      1.0000 0.77439  0.94602  0.58495  Biso   1.000  C 
  H75      1.0000 0.73247  0.91672  0.59836  Biso   1.000  H 
  H76      1.0000 0.81621  0.91296  0.58182  Biso   1.000  H 
  C75      1.0000 0.76768  0.98906  0.53247  Biso   1.000  C 
  C76      1.0000 0.82540  0.02812  0.55069  Biso   1.000  C 
  H77      1.0000 0.73277  0.02649  0.52531  Biso   1.000  H 
  H78      1.0000 0.75443  0.96256  0.49569  Biso   1.000  H 
  H79      1.0000 0.83786  0.07845  0.63557  Biso   1.000  H 
  H80      1.0000 0.75976  0.08974  0.60168  Biso   1.000  H 
  H81      1.0000 0.83371  0.06018  0.52201  Biso   1.000  H 
  H82      1.0000 0.87392  0.00251  0.55895  Biso   1.000  H 
  C77      1.0000 0.66291  0.03248  0.89891  Biso   1.000  C 
  C78      1.0000 0.72838  0.94146  0.91627  Biso   1.000  C 
  H83      1.0000 0.76647  0.90678  0.89738  Biso   1.000  H 
  C79      1.0000 0.66786  0.91258  0.90411  Biso   1.000  C 
  H84      1.0000 0.73965  0.95674  0.96678  Biso   1.000  H 
  H85      1.0000 0.67481  0.89104  0.85809  Biso   1.000  H 
  C80      1.0000 0.62634  0.97135  0.91364  Biso   1.000  C 
  H86      1.0000 0.65377  0.87789  0.93631  Biso   1.000  H 
  H87      1.0000 0.64667  0.06381  0.86297  Biso   1.000  H 
  H88      1.0000 0.67704  0.06835  0.93383  Biso   1.000  H 
  H89      1.0000 0.58805  0.97447  0.94884  Biso   1.000  H 
  H90      1.0000 0.60872  0.96021  0.87335  Biso   1.000  H 
  C81      1.0000 0.84640  0.50000  0.34640  Biso   1.000  C 
  O45      1.0000 0.82954  0.50000  0.40471  Biso   1.000  O 
  O46      1.0000 0.90471  0.50000  0.32954  Biso   1.000  O 
  C82      1.0000 0.79500  0.50000  0.29500  Biso   1.000  C 
  C83      1.0000 0.81563  0.50000  0.23249  Biso   1.000  C 
  H91      1.0000 0.86954  0.50000  0.22128  Biso   1.000  H 
  N11      1.0000 0.78658  0.49950  0.12444  Biso   1.000  N 
  C84      1.0000 0.76752  0.50000  0.18442  Biso   1.000  C 
  C85      1.0000 0.70501  0.50000  0.20500  Biso   1.000  C 
  C86      1.0000 0.68442  0.50000  0.26751  Biso   1.000  C 
  C87      1.0000 0.73249  0.50000  0.31563  Biso   1.000  C 
  N12      1.0000 0.71797  0.49976  0.38207  Biso   1.000  N 
  H92      1.0000 0.63051  0.50000  0.27872  Biso   1.000  H 
  O47      1.0000 0.59530  0.50000  0.17046  Biso   1.000  O 
  C88      1.0000 0.65361  0.50000  0.15360  Biso   1.000  C 
  O48      1.0000 0.67047  0.50000  0.09529  Biso   1.000  O 
  C89      1.0000 0.80211  0.55830  0.10439  Biso   1.000  C 
  C90      1.0000 0.77437  0.44599  0.08499  Biso   1.000  C 
  H93      1.0000 0.73248  0.41678  0.09839  Biso   1.000  H 
  H94      1.0000 0.81614  0.41300  0.08186  Biso   1.000  H 
  C91      1.0000 0.76769  0.48907  0.03246  Biso   1.000  C 
  C92      1.0000 0.82541  0.52815  0.05074  Biso   1.000  C 
  H95      1.0000 0.73284  0.52651  0.02531  Biso   1.000  H 
  H96      1.0000 0.75447  0.46244  0.99559  Biso   1.000  H 
  H97      1.0000 0.83771  0.57853  0.13569  Biso   1.000  H 
  H98      1.0000 0.75974  0.58981  0.10178  Biso   1.000  H 
  H99      1.0000 0.83401  0.56013  0.02196  Biso   1.000  H 
  H100     1.0000 0.87378  0.50237  0.05897  Biso   1.000  H 
  C93      1.0000 0.66301  0.53257  0.39895  Biso   1.000  C 
  C94      1.0000 0.72834  0.44136  0.41626  Biso   1.000  C 
  H101     1.0000 0.76645  0.40669  0.39742  Biso   1.000  H 
  C95      1.0000 0.66782  0.41265  0.40413  Biso   1.000  C 
  H102     1.0000 0.73968  0.45663  0.46675  Biso   1.000  H 
  H103     1.0000 0.67486  0.39109  0.35799  Biso   1.000  H 
  C96      1.0000 0.62643  0.47149  0.41362  Biso   1.000  C 
  H104     1.0000 0.65413  0.37797  0.43621  Biso   1.000  H 
  H105     1.0000 0.64680  0.56395  0.36292  Biso   1.000  H 
  H106     1.0000 0.67723  0.56839  0.43399  Biso   1.000  H 
  H107     1.0000 0.58827  0.47468  0.44900  Biso   1.000  H 
  H108     1.0000 0.60873  0.46034  0.37327  Biso   1.000  H 
  C97      1.0000 0.34640  0.00000  0.34640  Biso   1.000  C 
  O49      1.0000 0.32954  0.00000  0.40471  Biso   1.000  O 
  O50      1.0000 0.40471  0.00000  0.32954  Biso   1.000  O 
  C98      1.0000 0.29500  0.00000  0.29500  Biso   1.000  C 
  C99      1.0000 0.31563  0.00000  0.23249  Biso   1.000  C 
  H109     1.0000 0.36954  0.00000  0.22128  Biso   1.000  H 
  N13      1.0000 0.28656  0.99954  0.12443  Biso   1.000  N 
  C100     1.0000 0.26751  0.00000  0.18442  Biso   1.000  C 
  C101     1.0000 0.20500  0.00000  0.20500  Biso   1.000  C 
  C102     1.0000 0.18442  0.00000  0.26751  Biso   1.000  C 
  C103     1.0000 0.23249  0.00000  0.31563  Biso   1.000  C 
  N14      1.0000 0.21798  0.99983  0.38206  Biso   1.000  N 
  H110     1.0000 0.13051  0.00000  0.27872  Biso   1.000  H 
  O51      1.0000 0.09530  0.00000  0.17046  Biso   1.000  O 
  C104     1.0000 0.15360  0.00000  0.15360  Biso   1.000  C 
  O52      1.0000 0.17046  0.00000  0.09529  Biso   1.000  O 
  C105     1.0000 0.30208  0.05840  0.10441  Biso   1.000  C 
  C106     1.0000 0.27436  0.94604  0.08500  Biso   1.000  C 
  H111     1.0000 0.23261  0.91684  0.09858  Biso   1.000  H 
  H112     1.0000 0.31621  0.91309  0.08170  Biso   1.000  H 
  C107     1.0000 0.26779  0.98918  0.03241  Biso   1.000  C 
  C108     1.0000 0.32541  0.02821  0.05080  Biso   1.000  C 
  H113     1.0000 0.23281  0.02652  0.02534  Biso   1.000  H 
  H114     1.0000 0.25445  0.96276  0.99557  Biso   1.000  H 
  H115     1.0000 0.33772  0.07853  0.13584  Biso   1.000  H 
  H116     1.0000 0.25978  0.08996  0.10157  Biso   1.000  H 
  H117     1.0000 0.33407  0.06014  0.02188  Biso   1.000  H 
  H118     1.0000 0.37373  0.00242  0.05904  Biso   1.000  H 
  C109     1.0000 0.16297  0.03253  0.39885  Biso   1.000  C 
  C110     1.0000 0.22846  0.94155  0.41639  Biso   1.000  C 
  H119     1.0000 0.26650  0.90677  0.39760  Biso   1.000  H 
  C111     1.0000 0.16787  0.91261  0.40413  Biso   1.000  C 
  H120     1.0000 0.23958  0.95686  0.46697  Biso   1.000  H 
  H121     1.0000 0.17504  0.89104  0.35805  Biso   1.000  H 
  C112     1.0000 0.12640  0.97142  0.41363  Biso   1.000  C 
  H122     1.0000 0.15387  0.87786  0.43638  Biso   1.000  H 
  H123     1.0000 0.14692  0.06401  0.36269  Biso   1.000  H 
  H124     1.0000 0.17705  0.06840  0.43382  Biso   1.000  H 
  H125     1.0000 0.08837  0.97472  0.44921  Biso   1.000  H 
  H126     1.0000 0.10857  0.96016  0.37330  Biso   1.000  H 
  C113     1.0000 0.34640  0.50000  0.84640  Biso   1.000  C 
  O53      1.0000 0.32954  0.50000  0.90471  Biso   1.000  O 
  O54      1.0000 0.40471  0.50000  0.82954  Biso   1.000  O 
  C114     1.0000 0.29500  0.50000  0.79500  Biso   1.000  C 
  C115     1.0000 0.31563  0.50000  0.73249  Biso   1.000  C 
  H127     1.0000 0.36954  0.50000  0.72128  Biso   1.000  H 
  N15      1.0000 0.28657  0.49948  0.62442  Biso   1.000  N 
  C116     1.0000 0.26751  0.50000  0.68442  Biso   1.000  C 
  C117     1.0000 0.20500  0.50000  0.70500  Biso   1.000  C 
  C118     1.0000 0.18442  0.50000  0.76751  Biso   1.000  C 
  C119     1.0000 0.23249  0.50000  0.81563  Biso   1.000  C 
  N16      1.0000 0.21794  0.49994  0.88211  Biso   1.000  N 
  H128     1.0000 0.13051  0.50000  0.77872  Biso   1.000  H 
  O55      1.0000 0.09530  0.50000  0.67046  Biso   1.000  O 
  C120     1.0000 0.15360  0.50000  0.65360  Biso   1.000  C 
  O56      1.0000 0.17046  0.50000  0.59529  Biso   1.000  O 
  C121     1.0000 0.30219  0.55824  0.60432  Biso   1.000  C 
  C122     1.0000 0.27443  0.44596  0.58494  Biso   1.000  C 
  H129     1.0000 0.23253  0.41644  0.59863  Biso   1.000  H 
  H130     1.0000 0.31629  0.41314  0.58171  Biso   1.000  H 
  C123     1.0000 0.26763  0.48904  0.53256  Biso   1.000  C 
  C124     1.0000 0.32543  0.52811  0.55071  Biso   1.000  C 
  H131     1.0000 0.23278  0.52655  0.52534  Biso   1.000  H 
  H132     1.0000 0.25433  0.46266  0.49561  Biso   1.000  H 
  H133     1.0000 0.33801  0.57835  0.63568  Biso   1.000  H 
  H134     1.0000 0.26003  0.58980  0.60169  Biso   1.000  H 
  H135     1.0000 0.33397  0.56008  0.52196  Biso   1.000  H 
  H136     1.0000 0.37398  0.50257  0.55907  Biso   1.000  H 
  C125     1.0000 0.16291  0.53262  0.89895  Biso   1.000  C 
  C126     1.0000 0.22838  0.44166  0.91642  Biso   1.000  C 
  H137     1.0000 0.26656  0.40698  0.89756  Biso   1.000  H 
  C127     1.0000 0.16786  0.41268  0.90419  Biso   1.000  C 
  H138     1.0000 0.23964  0.45697  0.96699  Biso   1.000  H 
  H139     1.0000 0.17496  0.39111  0.85809  Biso   1.000  H 
  C128     1.0000 0.12625  0.47151  0.91370  Biso   1.000  C 
  H140     1.0000 0.15382  0.37796  0.93648  Biso   1.000  H 
  H141     1.0000 0.14670  0.56401  0.86281  Biso   1.000  H 
  H142     1.0000 0.17705  0.56843  0.93398  Biso   1.000  H 
  H143     1.0000 0.08803  0.47473  0.94901  Biso   1.000  H 
  H144     1.0000 0.10852  0.46030  0.87341  Biso   1.000  H 
  C129     1.0000 0.84640  0.15360  0.00000  Biso   1.000  C 
  O57      1.0000 0.90471  0.17046  0.00000  Biso   1.000  O 
  O58      1.0000 0.82954  0.09529  0.00000  Biso   1.000  O 
  C130     1.0000 0.79500  0.20500  0.00000  Biso   1.000  C 
  C131     1.0000 0.73249  0.18437  0.00000  Biso   1.000  C 
  H145     1.0000 0.72128  0.13046  0.00000  Biso   1.000  H 
  N17      1.0000 0.61927  0.21351  0.99358  Biso   1.000  N 
  C132     1.0000 0.68442  0.23249  0.00000  Biso   1.000  C 
  C133     1.0000 0.70500  0.29500  0.00000  Biso   1.000  C 
  C134     1.0000 0.76751  0.31558  0.00000  Biso   1.000  C 
  C135     1.0000 0.81563  0.26751  0.00000  Biso   1.000  C 
  N18      1.0000 0.87946  0.27877  0.99218  Biso   1.000  N 
  H146     1.0000 0.77872  0.36949  0.00000  Biso   1.000  H 
  O59      1.0000 0.67046  0.40470  0.00000  Biso   1.000  O 
  C136     1.0000 0.65360  0.34640  0.00000  Biso   1.000  C 
  O60      1.0000 0.59529  0.32954  0.00000  Biso   1.000  O 
  C137     1.0000 0.60575  0.18311  0.93347  Biso   1.000  C 
  C138     1.0000 0.59973  0.18262  0.04935  Biso   1.000  C 
  H147     1.0000 0.58876  0.21785  0.08782  Biso   1.000  H 
  H148     1.0000 0.63371  0.14770  0.06844  Biso   1.000  H 
  C139     1.0000 0.54793  0.14549  0.02169  Biso   1.000  C 
  C140     1.0000 0.56023  0.13511  0.95209  Biso   1.000  C 
  H149     1.0000 0.51324  0.18333  0.02372  Biso   1.000  H 
  H150     1.0000 0.52878  0.10374  0.04329  Biso   1.000  H 
  H151     1.0000 0.64963  0.15805  0.91372  Biso   1.000  H 
  H152     1.0000 0.59493  0.21884  0.89704  Biso   1.000  H 
  H153     1.0000 0.52270  0.14349  0.92298  Biso   1.000  H 
  H154     1.0000 0.57545  0.08505  0.94479  Biso   1.000  H 
  C141     1.0000 0.89296  0.28891  0.92875  Biso   1.000  C 
  C142     1.0000 0.90643  0.31365  0.04027  Biso   1.000  C 
  H155     1.0000 0.86890  0.32528  0.07897  Biso   1.000  H 
  C143     1.0000 0.92793  0.37055  0.00399  Biso   1.000  C 
  H156     1.0000 0.93812  0.27975  0.06100  Biso   1.000  H 
  H157     1.0000 0.89684  0.39990  0.03172  Biso   1.000  H 
  C144     1.0000 0.93304  0.34116  0.93636  Biso   1.000  C 
  H158     1.0000 0.96761  0.40126  0.00134  Biso   1.000  H 
  H159     1.0000 0.84606  0.29256  0.89833  Biso   1.000  H 
  H160     1.0000 0.91384  0.24281  0.91044  Biso   1.000  H 
  H161     1.0000 0.97761  0.33753  0.93470  Biso   1.000  H 
  H162     1.0000 0.92333  0.34214  0.88936  Biso   1.000  H 
  C145     1.0000 0.84640  0.65360  0.50000  Biso   1.000  C 
  O61      1.0000 0.90471  0.67046  0.50000  Biso   1.000  O 
  O62      1.0000 0.82954  0.59529  0.50000  Biso   1.000  O 
  C146     1.0000 0.79500  0.70500  0.50000  Biso   1.000  C 
  C147     1.0000 0.73249  0.68437  0.50000  Biso   1.000  C 
  H163     1.0000 0.72128  0.63046  0.50000  Biso   1.000  H 
  N19      1.0000 0.61925  0.71350  0.49361  Biso   1.000  N 
  C148     1.0000 0.68442  0.73248  0.50000  Biso   1.000  C 
  C149     1.0000 0.70500  0.79499  0.50000  Biso   1.000  C 
  C150     1.0000 0.76751  0.81558  0.50000  Biso   1.000  C 
  C151     1.0000 0.81563  0.76751  0.50000  Biso   1.000  C 
  N20      1.0000 0.87948  0.77877  0.49218  Biso   1.000  N 
  H164     1.0000 0.77872  0.86949  0.50000  Biso   1.000  H 
  O63      1.0000 0.67046  0.90470  0.50000  Biso   1.000  O 
  C152     1.0000 0.65360  0.84639  0.50000  Biso   1.000  C 
  O64      1.0000 0.59529  0.82953  0.50000  Biso   1.000  O 
  C153     1.0000 0.60564  0.68318  0.43345  Biso   1.000  C 
  C154     1.0000 0.59989  0.68252  0.54936  Biso   1.000  C 
  H165     1.0000 0.58894  0.71743  0.58811  Biso   1.000  H 
  H166     1.0000 0.63389  0.64749  0.56803  Biso   1.000  H 
  C155     1.0000 0.54798  0.64540  0.52168  Biso   1.000  C 
  C156     1.0000 0.56034  0.63511  0.45200  Biso   1.000  C 
  H167     1.0000 0.51325  0.68332  0.52399  Biso   1.000  H 
  H168     1.0000 0.52881  0.60380  0.54372  Biso   1.000  H 
  H169     1.0000 0.64953  0.65796  0.41386  Biso   1.000  H 
  H170     1.0000 0.59504  0.71893  0.39680  Biso   1.000  H 
  H171     1.0000 0.52269  0.64319  0.42317  Biso   1.000  H 
  H172     1.0000 0.57559  0.58502  0.44479  Biso   1.000  H 
  C157     1.0000 0.89294  0.78897  0.42872  Biso   1.000  C 
  C158     1.0000 0.90646  0.81371  0.54028  Biso   1.000  C 
  H173     1.0000 0.86876  0.82527  0.57887  Biso   1.000  H 
  C159     1.0000 0.92801  0.87058  0.50389  Biso   1.000  C 
  H174     1.0000 0.93815  0.77978  0.56111  Biso   1.000  H 
  H175     1.0000 0.89676  0.89984  0.53149  Biso   1.000  H 
  C160     1.0000 0.93305  0.84110  0.43640  Biso   1.000  C 
  H176     1.0000 0.96769  0.90116  0.50136  Biso   1.000  H 
  H177     1.0000 0.84618  0.79247  0.39820  Biso   1.000  H 
  H178     1.0000 0.91392  0.74292  0.41070  Biso   1.000  H 
  H179     1.0000 0.97758  0.83756  0.43475  Biso   1.000  H 
  H180     1.0000 0.92337  0.84223  0.38934  Biso   1.000  H 
  C161     1.0000 0.34640  0.15360  0.50000  Biso   1.000  C 
  O65      1.0000 0.40471  0.17046  0.50000  Biso   1.000  O 
  O66      1.0000 0.32954  0.09529  0.50000  Biso   1.000  O 
  C162     1.0000 0.29500  0.20500  0.50000  Biso   1.000  C 
  C163     1.0000 0.23249  0.18437  0.50000  Biso   1.000  C 
  H181     1.0000 0.22128  0.13046  0.50000  Biso   1.000  H 
  N21      1.0000 0.11920  0.21351  0.49360  Biso   1.000  N 
  C164     1.0000 0.18442  0.23249  0.50000  Biso   1.000  C 
  C165     1.0000 0.20500  0.29500  0.50000  Biso   1.000  C 
  C166     1.0000 0.26751  0.31558  0.50000  Biso   1.000  C 
  C167     1.0000 0.31563  0.26751  0.50000  Biso   1.000  C 
  N22      1.0000 0.37939  0.27876  0.49212  Biso   1.000  N 
  H182     1.0000 0.27872  0.36949  0.50000  Biso   1.000  H 
  O67      1.0000 0.17046  0.40470  0.50000  Biso   1.000  O 
  C168     1.0000 0.15360  0.34640  0.50000  Biso   1.000  C 
  O68      1.0000 0.09529  0.32954  0.50000  Biso   1.000  O 
  C169     1.0000 0.10572  0.18320  0.43342  Biso   1.000  C 
  C170     1.0000 0.09966  0.18256  0.54924  Biso   1.000  C 
  H183     1.0000 0.08881  0.21756  0.58809  Biso   1.000  H 
  H184     1.0000 0.13377  0.14752  0.56788  Biso   1.000  H 
  C171     1.0000 0.04793  0.14549  0.52157  Biso   1.000  C 
  C172     1.0000 0.06024  0.13500  0.45198  Biso   1.000  C 
  H185     1.0000 0.01330  0.18371  0.52348  Biso   1.000  H 
  H186     1.0000 0.02854  0.10385  0.54347  Biso   1.000  H 
  H187     1.0000 0.14953  0.15811  0.41368  Biso   1.000  H 
  H188     1.0000 0.09504  0.21909  0.39691  Biso   1.000  H 
  H189     1.0000 0.02280  0.14333  0.42297  Biso   1.000  H 
  H190     1.0000 0.07547  0.08482  0.44496  Biso   1.000  H 
  C173     1.0000 0.39290  0.28912  0.42869  Biso   1.000  C 
  C174     1.0000 0.40638  0.31364  0.54033  Biso   1.000  C 
  H191     1.0000 0.36866  0.32528  0.57886  Biso   1.000  H 
  C175     1.0000 0.42801  0.37063  0.50407  Biso   1.000  C 
  H192     1.0000 0.43800  0.27982  0.56128  Biso   1.000  H 
  H193     1.0000 0.39693  0.39970  0.53178  Biso   1.000  H 
  C176     1.0000 0.43308  0.34112  0.43658  Biso   1.000  C 
  H194     1.0000 0.46769  0.40120  0.50161  Biso   1.000  H 
  H195     1.0000 0.34599  0.29278  0.39843  Biso   1.000  H 
  H196     1.0000 0.41386  0.24288  0.41052  Biso   1.000  H 
  H197     1.0000 0.47781  0.33770  0.43501  Biso   1.000  H 
  H198     1.0000 0.42388  0.34217  0.38941  Biso   1.000  H 
  C177     1.0000 0.34640  0.65360  0.00000  Biso   1.000  C 
  O69      1.0000 0.40471  0.67046  0.00000  Biso   1.000  O 
  O70      1.0000 0.32954  0.59529  0.00000  Biso   1.000  O 
  C178     1.0000 0.29500  0.70500  0.00000  Biso   1.000  C 
  C179     1.0000 0.23249  0.68437  0.00000  Biso   1.000  C 
  H199     1.0000 0.22128  0.63046  0.00000  Biso   1.000  H 
  N23      1.0000 0.11920  0.71352  0.99374  Biso   1.000  N 
  C180     1.0000 0.18442  0.73248  0.00000  Biso   1.000  C 
  C181     1.0000 0.20500  0.79499  0.00000  Biso   1.000  C 
  C182     1.0000 0.26751  0.81558  0.00000  Biso   1.000  C 
  C183     1.0000 0.31563  0.76751  0.00000  Biso   1.000  C 
  N24      1.0000 0.37944  0.77874  0.99219  Biso   1.000  N 
  H200     1.0000 0.27872  0.86949  0.00000  Biso   1.000  H 
  O71      1.0000 0.17046  0.90470  0.00000  Biso   1.000  O 
  C184     1.0000 0.15360  0.84639  0.00000  Biso   1.000  C 
  O72      1.0000 0.09529  0.82953  0.00000  Biso   1.000  O 
  C185     1.0000 0.10567  0.68314  0.93361  Biso   1.000  C 
  C186     1.0000 0.09970  0.68267  0.04948  Biso   1.000  C 
  H201     1.0000 0.08892  0.71771  0.08824  Biso   1.000  H 
  H202     1.0000 0.13379  0.64758  0.06825  Biso   1.000  H 
  C187     1.0000 0.04796  0.64556  0.02183  Biso   1.000  C 
  C188     1.0000 0.06016  0.63509  0.95222  Biso   1.000  C 
  H203     1.0000 0.01331  0.68369  0.02384  Biso   1.000  H 
  H204     1.0000 0.02877  0.60390  0.04382  Biso   1.000  H 
  H205     1.0000 0.14938  0.65792  0.91401  Biso   1.000  H 
  H206     1.0000 0.09516  0.71893  0.89707  Biso   1.000  H 
  H207     1.0000 0.02262  0.64348  0.92319  Biso   1.000  H 
  H208     1.0000 0.07526  0.58482  0.94500  Biso   1.000  H 
  C189     1.0000 0.39296  0.78891  0.92875  Biso   1.000  C 
  C190     1.0000 0.40645  0.81358  0.04037  Biso   1.000  C 
  H209     1.0000 0.36875  0.82513  0.07898  Biso   1.000  H 
  C191     1.0000 0.42796  0.87054  0.00404  Biso   1.000  C 
  H210     1.0000 0.43805  0.77977  0.06108  Biso   1.000  H 
  H211     1.0000 0.39685  0.89971  0.03176  Biso   1.000  H 
  C192     1.0000 0.43319  0.84122  0.93648  Biso   1.000  C 
  H212     1.0000 0.46765  0.90133  0.00150  Biso   1.000  H 
  H213     1.0000 0.34610  0.79245  0.89832  Biso   1.000  H 
  H214     1.0000 0.41399  0.74296  0.91064  Biso   1.000  H 
  H215     1.0000 0.47785  0.83768  0.93497  Biso   1.000  H 
  H216     1.0000 0.42384  0.84191  0.88942  Biso   1.000  H 
  C193     1.0000 0.84640  0.84640  0.00000  Biso   1.000  C 
  O73      1.0000 0.90471  0.82954  0.00000  Biso   1.000  O 
  O74      1.0000 0.82954  0.90471  0.00000  Biso   1.000  O 
  C194     1.0000 0.79500  0.79500  0.00000  Biso   1.000  C 
  C195     1.0000 0.73249  0.81563  0.00000  Biso   1.000  C 
  H217     1.0000 0.72128  0.86954  0.00000  Biso   1.000  H 
  N25      1.0000 0.62439  0.78654  0.99952  Biso   1.000  N 
  C196     1.0000 0.68442  0.76752  0.00000  Biso   1.000  C 
  C197     1.0000 0.70500  0.70501  0.00000  Biso   1.000  C 
  C198     1.0000 0.76751  0.68442  0.00000  Biso   1.000  C 
  C199     1.0000 0.81563  0.73249  0.00000  Biso   1.000  C 
  N26      1.0000 0.88202  0.71798  0.99983  Biso   1.000  N 
  H218     1.0000 0.77872  0.63051  0.00000  Biso   1.000  H 
  O75      1.0000 0.67046  0.59530  0.00000  Biso   1.000  O 
  C200     1.0000 0.65360  0.65361  0.00000  Biso   1.000  C 
  O76      1.0000 0.59529  0.67047  0.00000  Biso   1.000  O 
  C201     1.0000 0.60442  0.80216  0.05837  Biso   1.000  C 
  C202     1.0000 0.58495  0.77434  0.94610  Biso   1.000  C 
  H219     1.0000 0.59871  0.73270  0.91667  Biso   1.000  H 
  H220     1.0000 0.58163  0.81621  0.91315  Biso   1.000  H 
  C203     1.0000 0.53243  0.76766  0.98919  Biso   1.000  C 
  C204     1.0000 0.55080  0.82539  0.02825  Biso   1.000  C 
  H221     1.0000 0.52528  0.73268  0.02655  Biso   1.000  H 
  H222     1.0000 0.49554  0.75458  0.96248  Biso   1.000  H 
  H223     1.0000 0.63589  0.83780  0.07832  Biso   1.000  H 
  H224     1.0000 0.60178  0.75986  0.08989  Biso   1.000  H 
  H225     1.0000 0.52190  0.83402  0.06013  Biso   1.000  H 
  H226     1.0000 0.55903  0.87371  0.00234  Biso   1.000  H 
  C205     1.0000 0.89885  0.66299  0.03256  Biso   1.000  C 
  C206     1.0000 0.91634  0.72844  0.94151  Biso   1.000  C 
  H227     1.0000 0.89757  0.76648  0.90671  Biso   1.000  H 
  C207     1.0000 0.90420  0.66788  0.91261  Biso   1.000  C 
  H228     1.0000 0.96690  0.73959  0.95682  Biso   1.000  H 
  H229     1.0000 0.85818  0.67511  0.89098  Biso   1.000  H 
  C208     1.0000 0.91363  0.62639  0.97144  Biso   1.000  C 
  H230     1.0000 0.93629  0.65382  0.87791  Biso   1.000  H 
  H231     1.0000 0.86271  0.64694  0.06401  Biso   1.000  H 
  H232     1.0000 0.93385  0.67703  0.06841  Biso   1.000  H 
  H233     1.0000 0.94911  0.58829  0.97473  Biso   1.000  H 
  H234     1.0000 0.87326  0.60873  0.96013  Biso   1.000  H 
  C209     1.0000 0.84640  0.34640  0.50000  Biso   1.000  C 
  O77      1.0000 0.90471  0.32954  0.50000  Biso   1.000  O 
  O78      1.0000 0.82954  0.40471  0.50000  Biso   1.000  O 
  C210     1.0000 0.79500  0.29500  0.50000  Biso   1.000  C 
  C211     1.0000 0.73249  0.31563  0.50000  Biso   1.000  C 
  H235     1.0000 0.72128  0.36954  0.50000  Biso   1.000  H 
  N27      1.0000 0.62444  0.28658  0.49950  Biso   1.000  N 
  C212     1.0000 0.68442  0.26751  0.50000  Biso   1.000  C 
  C213     1.0000 0.70500  0.20500  0.50000  Biso   1.000  C 
  C214     1.0000 0.76751  0.18442  0.50000  Biso   1.000  C 
  C215     1.0000 0.81563  0.23249  0.50000  Biso   1.000  C 
  N28      1.0000 0.88206  0.21797  0.49978  Biso   1.000  N 
  H236     1.0000 0.77872  0.13051  0.50000  Biso   1.000  H 
  O79      1.0000 0.67046  0.09530  0.50000  Biso   1.000  O 
  C216     1.0000 0.65360  0.15360  0.50000  Biso   1.000  C 
  O80      1.0000 0.59529  0.17046  0.50000  Biso   1.000  O 
  C217     1.0000 0.60435  0.30212  0.55825  Biso   1.000  C 
  C218     1.0000 0.58496  0.27440  0.44597  Biso   1.000  C 
  H237     1.0000 0.59842  0.23245  0.41656  Biso   1.000  H 
  H238     1.0000 0.58187  0.31626  0.41307  Biso   1.000  H 
  C219     1.0000 0.53254  0.26761  0.48902  Biso   1.000  C 
  C220     1.0000 0.55070  0.32541  0.52810  Biso   1.000  C 
  H239     1.0000 0.52529  0.23278  0.52643  Biso   1.000  H 
  H240     1.0000 0.49561  0.25444  0.46237  Biso   1.000  H 
  H241     1.0000 0.63564  0.33782  0.57849  Biso   1.000  H 
  H242     1.0000 0.60181  0.25982  0.58970  Biso   1.000  H 
  H243     1.0000 0.52200  0.33400  0.56014  Biso   1.000  H 
  H244     1.0000 0.55895  0.37388  0.50243  Biso   1.000  H 
  C221     1.0000 0.89896  0.16302  0.53255  Biso   1.000  C 
  C222     1.0000 0.91625  0.22835  0.44141  Biso   1.000  C 
  H245     1.0000 0.89741  0.26644  0.40671  Biso   1.000  H 
  C223     1.0000 0.90411  0.16786  0.41263  Biso   1.000  C 
  H246     1.0000 0.96676  0.23973  0.45667  Biso   1.000  H 
  H247     1.0000 0.85805  0.17488  0.39116  Biso   1.000  H 
  C224     1.0000 0.91366  0.12643  0.47147  Biso   1.000  C 
  H248     1.0000 0.93621  0.15399  0.37796  Biso   1.000  H 
  H249     1.0000 0.86295  0.14673  0.56395  Biso   1.000  H 
  H250     1.0000 0.93403  0.17713  0.56839  Biso   1.000  H 
  H251     1.0000 0.94886  0.08816  0.47472  Biso   1.000  H 
  H252     1.0000 0.87320  0.10887  0.46032  Biso   1.000  H 
  C225     1.0000 0.34640  0.84640  0.50000  Biso   1.000  C 
  O81      1.0000 0.40471  0.82954  0.50000  Biso   1.000  O 
  O82      1.0000 0.32954  0.90471  0.50000  Biso   1.000  O 
  C226     1.0000 0.29500  0.79500  0.50000  Biso   1.000  C 
  C227     1.0000 0.23249  0.81563  0.50000  Biso   1.000  C 
  H253     1.0000 0.22128  0.86954  0.50000  Biso   1.000  H 
  N29      1.0000 0.12445  0.78656  0.49953  Biso   1.000  N 
  C228     1.0000 0.18442  0.76752  0.50000  Biso   1.000  C 
  C229     1.0000 0.20500  0.70501  0.50000  Biso   1.000  C 
  C230     1.0000 0.26751  0.68442  0.50000  Biso   1.000  C 
  C231     1.0000 0.31563  0.73249  0.50000  Biso   1.000  C 
  N30      1.0000 0.38211  0.71794  0.49992  Biso   1.000  N 
  H254     1.0000 0.27872  0.63051  0.50000  Biso   1.000  H 
  O83      1.0000 0.17046  0.59530  0.50000  Biso   1.000  O 
  C232     1.0000 0.15360  0.65361  0.50000  Biso   1.000  C 
  O84      1.0000 0.09529  0.67047  0.50000  Biso   1.000  O 
  C233     1.0000 0.10435  0.80212  0.55830  Biso   1.000  C 
  C234     1.0000 0.08502  0.77443  0.44597  Biso   1.000  C 
  H255     1.0000 0.09850  0.73246  0.41673  Biso   1.000  H 
  H256     1.0000 0.08173  0.81622  0.41304  Biso   1.000  H 
  C235     1.0000 0.03249  0.76770  0.48905  Biso   1.000  C 
  C236     1.0000 0.05073  0.82540  0.52815  Biso   1.000  C 
  H257     1.0000 0.02539  0.73285  0.52657  Biso   1.000  H 
  H258     1.0000 0.99560  0.75436  0.46278  Biso   1.000  H 
  H259     1.0000 0.13573  0.83786  0.57849  Biso   1.000  H 
  H260     1.0000 0.10161  0.75985  0.58986  Biso   1.000  H 
  H261     1.0000 0.02191  0.83390  0.56013  Biso   1.000  H 
  H262     1.0000 0.05901  0.87386  0.50258  Biso   1.000  H 
  C237     1.0000 0.39892  0.66292  0.53266  Biso   1.000  C 
  C238     1.0000 0.41641  0.72833  0.44163  Biso   1.000  C 
  H263     1.0000 0.39763  0.76653  0.40689  Biso   1.000  H 
  C239     1.0000 0.40424  0.66778  0.41272  Biso   1.000  C 
  H264     1.0000 0.46696  0.73964  0.45695  Biso   1.000  H 
  H265     1.0000 0.35818  0.67483  0.39110  Biso   1.000  H 
  C240     1.0000 0.41365  0.62626  0.47157  Biso   1.000  C 
  H266     1.0000 0.43648  0.65388  0.37805  Biso   1.000  H 
  H267     1.0000 0.36282  0.64667  0.56407  Biso   1.000  H 
  H268     1.0000 0.43401  0.67717  0.56842  Biso   1.000  H 
  H269     1.0000 0.44912  0.58818  0.47477  Biso   1.000  H 
  H270     1.0000 0.37343  0.60842  0.46039  Biso   1.000  H 
  C241     1.0000 0.34640  0.34640  0.00000  Biso   1.000  C 
  O85      1.0000 0.40471  0.32954  0.00000  Biso   1.000  O 
  O86      1.0000 0.32954  0.40471  0.00000  Biso   1.000  O 
  C242     1.0000 0.29500  0.29500  0.00000  Biso   1.000  C 
  C243     1.0000 0.23249  0.31563  0.00000  Biso   1.000  C 
  H271     1.0000 0.22128  0.36954  0.00000  Biso   1.000  H 
  N31      1.0000 0.12441  0.28655  0.99954  Biso   1.000  N 
  C244     1.0000 0.18442  0.26751  0.00000  Biso   1.000  C 
  C245     1.0000 0.20500  0.20500  0.00000  Biso   1.000  C 
  C246     1.0000 0.26751  0.18442  0.00000  Biso   1.000  C 
  C247     1.0000 0.31563  0.23249  0.00000  Biso   1.000  C 
  N32      1.0000 0.38206  0.21796  0.99995  Biso   1.000  N 
  H272     1.0000 0.27872  0.13051  0.00000  Biso   1.000  H 
  O87      1.0000 0.17046  0.09530  0.00000  Biso   1.000  O 
  C248     1.0000 0.15360  0.15360  0.00000  Biso   1.000  C 
  O88      1.0000 0.09529  0.17046  0.00000  Biso   1.000  O 
  C249     1.0000 0.10432  0.30210  0.05828  Biso   1.000  C 
  C250     1.0000 0.08499  0.27441  0.94604  Biso   1.000  C 
  H273     1.0000 0.09851  0.23252  0.91680  Biso   1.000  H 
  H274     1.0000 0.08183  0.31623  0.91306  Biso   1.000  H 
  C251     1.0000 0.03245  0.26772  0.98906  Biso   1.000  C 
  C252     1.0000 0.05070  0.32537  0.02818  Biso   1.000  C 
  H275     1.0000 0.02524  0.23275  0.02650  Biso   1.000  H 
  H276     1.0000 0.99568  0.25443  0.96256  Biso   1.000  H 
  H277     1.0000 0.13557  0.33781  0.07844  Biso   1.000  H 
  H278     1.0000 0.10158  0.25981  0.08984  Biso   1.000  H 
  H279     1.0000 0.02192  0.33376  0.06013  Biso   1.000  H 
  H280     1.0000 0.05894  0.37383  0.00260  Biso   1.000  H 
  C253     1.0000 0.39894  0.16287  0.03249  Biso   1.000  C 
  C254     1.0000 0.41646  0.22840  0.94156  Biso   1.000  C 
  H281     1.0000 0.39768  0.26656  0.90692  Biso   1.000  H 
  C255     1.0000 0.40422  0.16794  0.91254  Biso   1.000  C 
  H282     1.0000 0.46693  0.23958  0.95693  Biso   1.000  H 
  H283     1.0000 0.35811  0.17502  0.89097  Biso   1.000  H 
  C256     1.0000 0.41363  0.12632  0.97134  Biso   1.000  C 
  H284     1.0000 0.43637  0.15385  0.87780  Biso   1.000  H 
  H285     1.0000 0.36286  0.14682  0.06375  Biso   1.000  H 
  H286     1.0000 0.43378  0.17708  0.06833  Biso   1.000  H 
  H287     1.0000 0.44887  0.08806  0.97457  Biso   1.000  H 
  H288     1.0000 0.37342  0.10859  0.96011  Biso   1.000  H 
  C257     1.0000 0.00000  0.84640  0.15360  Biso   1.000  C 
  O89      1.0000 0.00000  0.90471  0.17046  Biso   1.000  O 
  O90      1.0000 0.00000  0.82954  0.09529  Biso   1.000  O 
  C258     1.0000 0.00000  0.79500  0.20500  Biso   1.000  C 
  C259     1.0000 0.00000  0.73249  0.18437  Biso   1.000  C 
  H289     1.0000 0.00000  0.72128  0.13046  Biso   1.000  H 
  N33      1.0000 0.99356  0.61923  0.21352  Biso   1.000  N 
  C260     1.0000 0.00000  0.68442  0.23249  Biso   1.000  C 
  C261     1.0000 0.00000  0.70500  0.29500  Biso   1.000  C 
  C262     1.0000 0.00000  0.76751  0.31558  Biso   1.000  C 
  C263     1.0000 0.00000  0.81563  0.26751  Biso   1.000  C 
  N34      1.0000 0.99211  0.87941  0.27879  Biso   1.000  N 
  H290     1.0000 0.00000  0.77872  0.36949  Biso   1.000  H 
  O91      1.0000 0.00000  0.67046  0.40470  Biso   1.000  O 
  C264     1.0000 0.00000  0.65360  0.34640  Biso   1.000  C 
  O92      1.0000 0.00000  0.59529  0.32954  Biso   1.000  O 
  C265     1.0000 0.93337  0.60578  0.18321  Biso   1.000  C 
  C266     1.0000 0.04922  0.59973  0.18254  Biso   1.000  C 
  H291     1.0000 0.08803  0.58884  0.21754  Biso   1.000  H 
  H292     1.0000 0.06806  0.63377  0.14755  Biso   1.000  H 
  C267     1.0000 0.02150  0.54792  0.14548  Biso   1.000  C 
  C268     1.0000 0.95193  0.56033  0.13507  Biso   1.000  C 
  H293     1.0000 0.02340  0.51336  0.18361  Biso   1.000  H 
  H294     1.0000 0.04339  0.52866  0.10380  Biso   1.000  H 
  H295     1.0000 0.91364  0.64959  0.15811  Biso   1.000  H 
  H296     1.0000 0.89689  0.59507  0.21909  Biso   1.000  H 
  H297     1.0000 0.92282  0.52282  0.14328  Biso   1.000  H 
  H298     1.0000 0.94481  0.57554  0.08502  Biso   1.000  H 
  C269     1.0000 0.92868  0.89293  0.28903  Biso   1.000  C 
  C270     1.0000 0.04032  0.90638  0.31366  Biso   1.000  C 
  H299     1.0000 0.07889  0.86858  0.32527  Biso   1.000  H 
  C271     1.0000 0.00402  0.92795  0.37061  Biso   1.000  C 
  H300     1.0000 0.06119  0.93797  0.27978  Biso   1.000  H 
  H301     1.0000 0.03171  0.89681  0.39972  Biso   1.000  H 
  C272     1.0000 0.93651  0.93314  0.34117  Biso   1.000  C 
  H302     1.0000 0.00156  0.96760  0.40121  Biso   1.000  H 
  H303     1.0000 0.89838  0.84602  0.29268  Biso   1.000  H 
  H304     1.0000 0.91053  0.91392  0.24283  Biso   1.000  H 
  H305     1.0000 0.93491  0.97792  0.33775  Biso   1.000  H 
  H306     1.0000 0.88938  0.92390  0.34195  Biso   1.000  H 
  C273     1.0000 0.00000  0.34640  0.65360  Biso   1.000  C 
  O93      1.0000 0.00000  0.40471  0.67046  Biso   1.000  O 
  O94      1.0000 0.00000  0.32954  0.59529  Biso   1.000  O 
  C274     1.0000 0.00000  0.29500  0.70500  Biso   1.000  C 
  C275     1.0000 0.00000  0.23249  0.68437  Biso   1.000  C 
  H307     1.0000 0.00000  0.22128  0.63046  Biso   1.000  H 
  N35      1.0000 0.99358  0.11922  0.71351  Biso   1.000  N 
  C276     1.0000 0.00000  0.18442  0.73248  Biso   1.000  C 
  C277     1.0000 0.00000  0.20500  0.79499  Biso   1.000  C 
  C278     1.0000 0.00000  0.26751  0.81558  Biso   1.000  C 
  C279     1.0000 0.00000  0.31563  0.76751  Biso   1.000  C 
  N36      1.0000 0.99218  0.37947  0.77877  Biso   1.000  N 
  H308     1.0000 0.00000  0.27872  0.86949  Biso   1.000  H 
  O95      1.0000 0.00000  0.17046  0.90470  Biso   1.000  O 
  C280     1.0000 0.00000  0.15360  0.84639  Biso   1.000  C 
  O96      1.0000 0.00000  0.09529  0.82953  Biso   1.000  O 
  C281     1.0000 0.93341  0.10571  0.68317  Biso   1.000  C 
  C282     1.0000 0.04929  0.09980  0.68249  Biso   1.000  C 
  H309     1.0000 0.08798  0.08873  0.71749  Biso   1.000  H 
  H310     1.0000 0.06820  0.13382  0.64755  Biso   1.000  H 
  C283     1.0000 0.02158  0.04793  0.64537  Biso   1.000  C 
  C284     1.0000 0.95194  0.06037  0.63510  Biso   1.000  C 
  H311     1.0000 0.02366  0.01327  0.68332  Biso   1.000  H 
  H312     1.0000 0.04350  0.02876  0.60375  Biso   1.000  H 
  H313     1.0000 0.91379  0.14958  0.65794  Biso   1.000  H 
  H314     1.0000 0.89688  0.09506  0.71889  Biso   1.000  H 
  H315     1.0000 0.92307  0.02266  0.64333  Biso   1.000  H 
  H316     1.0000 0.94471  0.07553  0.58508  Biso   1.000  H 
  C285     1.0000 0.92871  0.39295  0.78897  Biso   1.000  C 
  C286     1.0000 0.04034  0.40641  0.81366  Biso   1.000  C 
  H317     1.0000 0.07888  0.36853  0.82524  Biso   1.000  H 
  C287     1.0000 0.00396  0.42796  0.87056  Biso   1.000  C 
  H318     1.0000 0.06123  0.43799  0.77976  Biso   1.000  H 
  H319     1.0000 0.03160  0.39679  0.89975  Biso   1.000  H 
  C288     1.0000 0.93645  0.43310  0.84117  Biso   1.000  C 
  H320     1.0000 0.00146  0.46764  0.90116  Biso   1.000  H 
  H321     1.0000 0.89826  0.34609  0.79244  Biso   1.000  H 
  H322     1.0000 0.91069  0.41398  0.74295  Biso   1.000  H 
  H323     1.0000 0.93488  0.47777  0.83768  Biso   1.000  H 
  H324     1.0000 0.88933  0.42363  0.84206  Biso   1.000  H 
  C289     1.0000 0.50000  0.84640  0.65360  Biso   1.000  C 
  O97      1.0000 0.50000  0.90471  0.67046  Biso   1.000  O 
  O98      1.0000 0.50000  0.82954  0.59529  Biso   1.000  O 
  C290     1.0000 0.50000  0.79500  0.70500  Biso   1.000  C 
  C291     1.0000 0.50000  0.73249  0.68437  Biso   1.000  C 
  H325     1.0000 0.50000  0.72128  0.63046  Biso   1.000  H 
  N37      1.0000 0.49379  0.61921  0.71352  Biso   1.000  N 
  C292     1.0000 0.50000  0.68442  0.73248  Biso   1.000  C 
  C293     1.0000 0.50000  0.70500  0.79499  Biso   1.000  C 
  C294     1.0000 0.50000  0.76751  0.81558  Biso   1.000  C 
  C295     1.0000 0.50000  0.81563  0.76751  Biso   1.000  C 
  N38      1.0000 0.49221  0.87940  0.77871  Biso   1.000  N 
  H326     1.0000 0.50000  0.77872  0.86949  Biso   1.000  H 
  O99      1.0000 0.50000  0.67046  0.90470  Biso   1.000  O 
  C296     1.0000 0.50000  0.65360  0.84639  Biso   1.000  C 
  O100     1.0000 0.50000  0.59529  0.82953  Biso   1.000  O 
  C297     1.0000 0.43362  0.60560  0.68317  Biso   1.000  C 
  C298     1.0000 0.54954  0.59973  0.68270  Biso   1.000  C 
  H327     1.0000 0.58832  0.58898  0.71770  Biso   1.000  H 
  H328     1.0000 0.56812  0.63378  0.64753  Biso   1.000  H 
  C299     1.0000 0.52189  0.54797  0.64558  Biso   1.000  C 
  C300     1.0000 0.45225  0.56015  0.63512  Biso   1.000  C 
  H329     1.0000 0.52411  0.51333  0.68382  Biso   1.000  H 
  H330     1.0000 0.54403  0.52874  0.60405  Biso   1.000  H 
  H331     1.0000 0.41416  0.64932  0.65789  Biso   1.000  H 
  H332     1.0000 0.39704  0.59515  0.71900  Biso   1.000  H 
  H333     1.0000 0.42335  0.52261  0.64333  Biso   1.000  H 
  H334     1.0000 0.44500  0.57530  0.58484  Biso   1.000  H 
  C301     1.0000 0.42872  0.89286  0.78896  Biso   1.000  C 
  C302     1.0000 0.54029  0.90646  0.81354  Biso   1.000  C 
  H335     1.0000 0.57882  0.86892  0.82510  Biso   1.000  H 
  C303     1.0000 0.50401  0.92802  0.87049  Biso   1.000  C 
  H336     1.0000 0.56106  0.93809  0.77989  Biso   1.000  H 
  H337     1.0000 0.53184  0.89689  0.89980  Biso   1.000  H 
  C304     1.0000 0.43642  0.93303  0.84117  Biso   1.000  C 
  H338     1.0000 0.50155  0.96778  0.90118  Biso   1.000  H 
  H339     1.0000 0.39829  0.84601  0.79249  Biso   1.000  H 
  H340     1.0000 0.41044  0.91393  0.74309  Biso   1.000  H 
  H341     1.0000 0.43477  0.97764  0.83751  Biso   1.000  H 
  H342     1.0000 0.38942  0.92324  0.84219  Biso   1.000  H 
  C305     1.0000 0.50000  0.34640  0.15360  Biso   1.000  C 
  O101     1.0000 0.50000  0.40471  0.17046  Biso   1.000  O 
  O102     1.0000 0.50000  0.32954  0.09529  Biso   1.000  O 
  C306     1.0000 0.50000  0.29500  0.20500  Biso   1.000  C 
  C307     1.0000 0.50000  0.23249  0.18437  Biso   1.000  C 
  H343     1.0000 0.50000  0.22128  0.13046  Biso   1.000  H 
  N39      1.0000 0.49366  0.11930  0.21352  Biso   1.000  N 
  C308     1.0000 0.50000  0.18442  0.23249  Biso   1.000  C 
  C309     1.0000 0.50000  0.20500  0.29500  Biso   1.000  C 
  C310     1.0000 0.50000  0.26751  0.31558  Biso   1.000  C 
  C311     1.0000 0.50000  0.31563  0.26751  Biso   1.000  C 
  N40      1.0000 0.49219  0.37942  0.27876  Biso   1.000  N 
  H344     1.0000 0.50000  0.27872  0.36949  Biso   1.000  H 
  O103     1.0000 0.50000  0.17046  0.40470  Biso   1.000  O 
  C312     1.0000 0.50000  0.15360  0.34640  Biso   1.000  C 
  O104     1.0000 0.50000  0.09529  0.32954  Biso   1.000  O 
  C313     1.0000 0.43357  0.10574  0.18310  Biso   1.000  C 
  C314     1.0000 0.54947  0.09983  0.18269  Biso   1.000  C 
  H345     1.0000 0.58809  0.08897  0.21780  Biso   1.000  H 
  H346     1.0000 0.56833  0.13403  0.14782  Biso   1.000  H 
  C315     1.0000 0.52183  0.04805  0.14550  Biso   1.000  C 
  C316     1.0000 0.45217  0.06021  0.13514  Biso   1.000  C 
  H347     1.0000 0.52401  0.01338  0.18327  Biso   1.000  H 
  H348     1.0000 0.54370  0.02906  0.10375  Biso   1.000  H 
  H349     1.0000 0.41405  0.14950  0.15782  Biso   1.000  H 
  H350     1.0000 0.39692  0.09507  0.21876  Biso   1.000  H 
  H351     1.0000 0.42306  0.02265  0.14350  Biso   1.000  H 
  H352     1.0000 0.44488  0.07531  0.08493  Biso   1.000  H 
  C317     1.0000 0.42877  0.39297  0.28903  Biso   1.000  C 
  C318     1.0000 0.54028  0.40637  0.31371  Biso   1.000  C 
  H353     1.0000 0.57893  0.36887  0.32537  Biso   1.000  H 
  C319     1.0000 0.50400  0.42797  0.37062  Biso   1.000  C 
  H354     1.0000 0.56113  0.43809  0.27980  Biso   1.000  H 
  H355     1.0000 0.53167  0.39691  0.39990  Biso   1.000  H 
  C320     1.0000 0.43642  0.43305  0.34111  Biso   1.000  C 
  H356     1.0000 0.50139  0.46767  0.40125  Biso   1.000  H 
  H357     1.0000 0.39838  0.34608  0.29283  Biso   1.000  H 
  H358     1.0000 0.41040  0.41379  0.24284  Biso   1.000  H 
  H359     1.0000 0.43476  0.47764  0.33751  Biso   1.000  H 
  H360     1.0000 0.38942  0.42345  0.34236  Biso   1.000  H 
  C321     1.0000 0.00000  0.84640  0.84640  Biso   1.000  C 
  O105     1.0000 0.00000  0.90471  0.82954  Biso   1.000  O 
  O106     1.0000 0.00000  0.82954  0.90471  Biso   1.000  O 
  C322     1.0000 0.00000  0.79500  0.79500  Biso   1.000  C 
  C323     1.0000 0.00000  0.73249  0.81563  Biso   1.000  C 
  H361     1.0000 0.00000  0.72128  0.86954  Biso   1.000  H 
  N41      1.0000 0.99948  0.62441  0.78655  Biso   1.000  N 
  C324     1.0000 0.00000  0.68442  0.76752  Biso   1.000  C 
  C325     1.0000 0.00000  0.70500  0.70501  Biso   1.000  C 
  C326     1.0000 0.00000  0.76751  0.68442  Biso   1.000  C 
  C327     1.0000 0.00000  0.81563  0.73249  Biso   1.000  C 
  N42      1.0000 0.99996  0.88210  0.71792  Biso   1.000  N 
  H362     1.0000 0.00000  0.77872  0.63051  Biso   1.000  H 
  O107     1.0000 0.00000  0.67046  0.59530  Biso   1.000  O 
  C328     1.0000 0.00000  0.65360  0.65361  Biso   1.000  C 
  O108     1.0000 0.00000  0.59529  0.67047  Biso   1.000  O 
  C329     1.0000 0.05829  0.60436  0.80219  Biso   1.000  C 
  C330     1.0000 0.94597  0.58496  0.77438  Biso   1.000  C 
  H363     1.0000 0.91661  0.59863  0.73254  Biso   1.000  H 
  H364     1.0000 0.91308  0.58167  0.81614  Biso   1.000  H 
  C331     1.0000 0.98908  0.53252  0.76762  Biso   1.000  C 
  C332     1.0000 0.02814  0.55074  0.82540  Biso   1.000  C 
  H365     1.0000 0.02663  0.52538  0.73282  Biso   1.000  H 
  H366     1.0000 0.96269  0.49552  0.75442  Biso   1.000  H 
  H367     1.0000 0.07841  0.63575  0.83791  Biso   1.000  H 
  H368     1.0000 0.08987  0.60178  0.75994  Biso   1.000  H 
  H369     1.0000 0.06010  0.52190  0.83394  Biso   1.000  H 
  H370     1.0000 0.00244  0.55908  0.87383  Biso   1.000  H 
  C333     1.0000 0.03263  0.89895  0.66288  Biso   1.000  C 
  C334     1.0000 0.94160  0.91641  0.72835  Biso   1.000  C 
  H371     1.0000 0.90699  0.89761  0.76660  Biso   1.000  H 
  C335     1.0000 0.91265  0.90423  0.66787  Biso   1.000  C 
  H372     1.0000 0.95698  0.96696  0.73959  Biso   1.000  H 
  H373     1.0000 0.89099  0.85813  0.67504  Biso   1.000  H 
  C336     1.0000 0.97151  0.91367  0.62623  Biso   1.000  C 
  H374     1.0000 0.87795  0.93642  0.65391  Biso   1.000  H 
  H375     1.0000 0.06396  0.86281  0.64678  Biso   1.000  H 
  H376     1.0000 0.06842  0.93397  0.67708  Biso   1.000  H 
  H377     1.0000 0.97471  0.94902  0.58798  Biso   1.000  H 
  H378     1.0000 0.96024  0.87344  0.60853  Biso   1.000  H 
  C337     1.0000 0.00000  0.34640  0.34640  Biso   1.000  C 
  O109     1.0000 0.00000  0.40471  0.32954  Biso   1.000  O 
  O110     1.0000 0.00000  0.32954  0.40471  Biso   1.000  O 
  C338     1.0000 0.00000  0.29500  0.29500  Biso   1.000  C 
  C339     1.0000 0.00000  0.23249  0.31563  Biso   1.000  C 
  H379     1.0000 0.00000  0.22128  0.36954  Biso   1.000  H 
  N43      1.0000 0.99950  0.12442  0.28653  Biso   1.000  N 
  C340     1.0000 0.00000  0.18442  0.26751  Biso   1.000  C 
  C341     1.0000 0.00000  0.20500  0.20500  Biso   1.000  C 
  C342     1.0000 0.00000  0.26751  0.18442  Biso   1.000  C 
  C343     1.0000 0.00000  0.31563  0.23249  Biso   1.000  C 
  N44      1.0000 0.99983  0.38208  0.21796  Biso   1.000  N 
  H380     1.0000 0.00000  0.27872  0.13051  Biso   1.000  H 
  O111     1.0000 0.00000  0.17046  0.09530  Biso   1.000  O 
  C344     1.0000 0.00000  0.15360  0.15360  Biso   1.000  C 
  O112     1.0000 0.00000  0.09529  0.17046  Biso   1.000  O 
  C345     1.0000 0.05830  0.10439  0.30216  Biso   1.000  C 
  C346     1.0000 0.94602  0.08495  0.27437  Biso   1.000  C 
  H381     1.0000 0.91659  0.09863  0.23260  Biso   1.000  H 
  H382     1.0000 0.91320  0.08181  0.31619  Biso   1.000  H 
  C347     1.0000 0.98910  0.03249  0.26764  Biso   1.000  C 
  C348     1.0000 0.02820  0.05075  0.32540  Biso   1.000  C 
  H383     1.0000 0.02653  0.02525  0.23276  Biso   1.000  H 
  H384     1.0000 0.96237  0.99550  0.25446  Biso   1.000  H 
  H385     1.0000 0.07849  0.13570  0.33775  Biso   1.000  H 
  H386     1.0000 0.08988  0.10182  0.25995  Biso   1.000  H 
  H387     1.0000 0.06007  0.02194  0.33412  Biso   1.000  H 
  H388     1.0000 0.00234  0.05901  0.37371  Biso   1.000  H 
  C349     1.0000 0.03255  0.39897  0.16296  Biso   1.000  C 
  C350     1.0000 0.94143  0.41633  0.22836  Biso   1.000  C 
  H389     1.0000 0.90685  0.39745  0.26653  Biso   1.000  H 
  C351     1.0000 0.91258  0.40406  0.16792  Biso   1.000  C 
  H390     1.0000 0.95674  0.46684  0.23968  Biso   1.000  H 
  H391     1.0000 0.89107  0.35792  0.17496  Biso   1.000  H 
  C352     1.0000 0.97144  0.41366  0.12640  Biso   1.000  C 
  H392     1.0000 0.87791  0.43627  0.15414  Biso   1.000  H 
  H393     1.0000 0.06386  0.36287  0.14677  Biso   1.000  H 
  H394     1.0000 0.06842  0.43396  0.17709  Biso   1.000  H 
  H395     1.0000 0.97474  0.44890  0.08809  Biso   1.000  H 
  H396     1.0000 0.96024  0.37327  0.10878  Biso   1.000  H 
  C353     1.0000 0.50000  0.84640  0.34640  Biso   1.000  C 
  O113     1.0000 0.50000  0.90471  0.32954  Biso   1.000  O 
  O114     1.0000 0.50000  0.82954  0.40471  Biso   1.000  O 
  C354     1.0000 0.50000  0.79500  0.29500  Biso   1.000  C 
  C355     1.0000 0.50000  0.73249  0.31563  Biso   1.000  C 
  H397     1.0000 0.50000  0.72128  0.36954  Biso   1.000  H 
  N45      1.0000 0.49953  0.62442  0.28658  Biso   1.000  N 
  C356     1.0000 0.50000  0.68442  0.26751  Biso   1.000  C 
  C357     1.0000 0.50000  0.70500  0.20500  Biso   1.000  C 
  C358     1.0000 0.50000  0.76751  0.18442  Biso   1.000  C 
  C359     1.0000 0.50000  0.81563  0.23249  Biso   1.000  C 
  N46      1.0000 0.49989  0.88205  0.21795  Biso   1.000  N 
  H398     1.0000 0.50000  0.77872  0.13051  Biso   1.000  H 
  O115     1.0000 0.50000  0.67046  0.09530  Biso   1.000  O 
  C360     1.0000 0.50000  0.65360  0.15360  Biso   1.000  C 
  O116     1.0000 0.50000  0.59529  0.17046  Biso   1.000  O 
  C361     1.0000 0.55824  0.60428  0.30207  Biso   1.000  C 
  C362     1.0000 0.44602  0.58495  0.27443  Biso   1.000  C 
  H399     1.0000 0.41664  0.59843  0.23247  Biso   1.000  H 
  H400     1.0000 0.41308  0.58193  0.31636  Biso   1.000  H 
  C363     1.0000 0.48903  0.53251  0.26772  Biso   1.000  C 
  C364     1.0000 0.52812  0.55067  0.32540  Biso   1.000  C 
  H401     1.0000 0.52640  0.52520  0.23276  Biso   1.000  H 
  H402     1.0000 0.46251  0.49576  0.25435  Biso   1.000  H 
  H403     1.0000 0.57853  0.63550  0.33783  Biso   1.000  H 
  H404     1.0000 0.58975  0.60154  0.25982  Biso   1.000  H 
  H405     1.0000 0.56012  0.52201  0.33377  Biso   1.000  H 
  H406     1.0000 0.50262  0.55892  0.37394  Biso   1.000  H 
  C365     1.0000 0.53246  0.89887  0.16286  Biso   1.000  C 
  C366     1.0000 0.44160  0.91643  0.22844  Biso   1.000  C 
  H407     1.0000 0.40687  0.89760  0.26650  Biso   1.000  H 
  C367     1.0000 0.41254  0.90411  0.16793  Biso   1.000  C 
  H408     1.0000 0.45690  0.96694  0.23966  Biso   1.000  H 
  H409     1.0000 0.39098  0.85819  0.17485  Biso   1.000  H 
  C368     1.0000 0.47131  0.91362  0.12638  Biso   1.000  C 
  H410     1.0000 0.37784  0.93645  0.15380  Biso   1.000  H 
  H411     1.0000 0.56383  0.86290  0.14664  Biso   1.000  H 
  H412     1.0000 0.56828  0.93378  0.17699  Biso   1.000  H 
  H413     1.0000 0.47462  0.94903  0.08831  Biso   1.000  H 
  H414     1.0000 0.46013  0.87335  0.10860  Biso   1.000  H 
  C369     1.0000 0.50000  0.34640  0.84640  Biso   1.000  C 
  O117     1.0000 0.50000  0.40471  0.82954  Biso   1.000  O 
  O118     1.0000 0.50000  0.32954  0.90471  Biso   1.000  O 
  C370     1.0000 0.50000  0.29500  0.79500  Biso   1.000  C 
  C371     1.0000 0.50000  0.23249  0.81563  Biso   1.000  C 
  H415     1.0000 0.50000  0.22128  0.86954  Biso   1.000  H 
  N47      1.0000 0.49953  0.12439  0.78655  Biso   1.000  N 
  C372     1.0000 0.50000  0.18442  0.76752  Biso   1.000  C 
  C373     1.0000 0.50000  0.20500  0.70501  Biso   1.000  C 
  C374     1.0000 0.50000  0.26751  0.68442  Biso   1.000  C 
  C375     1.0000 0.50000  0.31563  0.73249  Biso   1.000  C 
  N48      1.0000 0.49980  0.38202  0.71797  Biso   1.000  N 
  H416     1.0000 0.50000  0.27872  0.63051  Biso   1.000  H 
  O119     1.0000 0.50000  0.17046  0.59530  Biso   1.000  O 
  C376     1.0000 0.50000  0.15360  0.65361  Biso   1.000  C 
  O120     1.0000 0.50000  0.09529  0.67047  Biso   1.000  O 
  C377     1.0000 0.55836  0.10437  0.80204  Biso   1.000  C 
  C378     1.0000 0.44603  0.08499  0.77434  Biso   1.000  C 
  H417     1.0000 0.41684  0.09843  0.73249  Biso   1.000  H 
  H418     1.0000 0.41295  0.08170  0.81617  Biso   1.000  H 
  C379     1.0000 0.48913  0.03242  0.76766  Biso   1.000  C 
  C380     1.0000 0.52816  0.05077  0.82535  Biso   1.000  C 
  H419     1.0000 0.52648  0.02533  0.73277  Biso   1.000  H 
  H420     1.0000 0.46267  0.99560  0.75459  Biso   1.000  H 
  H421     1.0000 0.57853  0.13582  0.83774  Biso   1.000  H 
  H422     1.0000 0.58979  0.10169  0.75956  Biso   1.000  H 
  H423     1.0000 0.56023  0.02195  0.83371  Biso   1.000  H 
  H424     1.0000 0.50242  0.05899  0.87377  Biso   1.000  H 
  C381     1.0000 0.53260  0.39879  0.66299  Biso   1.000  C 
  C382     1.0000 0.44152  0.41631  0.72842  Biso   1.000  C 
  H425     1.0000 0.40664  0.39755  0.76645  Biso   1.000  H 
  C383     1.0000 0.41269  0.40422  0.66776  Biso   1.000  C 
  H426     1.0000 0.45681  0.46690  0.73959  Biso   1.000  H 
  H427     1.0000 0.39101  0.35826  0.67497  Biso   1.000  H 
  C384     1.0000 0.47152  0.41358  0.62640  Biso   1.000  C 
  H428     1.0000 0.37799  0.43634  0.65376  Biso   1.000  H 
  H429     1.0000 0.56413  0.36276  0.64685  Biso   1.000  H 
  H430     1.0000 0.56840  0.43388  0.67712  Biso   1.000  H 
  H431     1.0000 0.47471  0.44925  0.58847  Biso   1.000  H 
  H432     1.0000 0.46022  0.37330  0.60859  Biso   1.000  H 
