data_image0
_cell_length_a       20.7004
_cell_length_b       20.7004
_cell_length_c       20.7004
_cell_angle_alpha    90
_cell_angle_beta     90
_cell_angle_gamma    90

_symmetry_space_group_name_H-M    "P 1"
_symmetry_int_tables_number       1

loop_
  _symmetry_equiv_pos_as_xyz
  'x, y, z'

loop_
  _atom_site_label
  _atom_site_occupancy
  _atom_site_fract_x
  _atom_site_fract_y
  _atom_site_fract_z
  _atom_site_thermal_displace_type
  _atom_site_B_iso_or_equiv
  _atom_site_type_symbol
  Zr1      1.0000 0.11989  0.00000  0.00000  Biso   1.000  Zr
  Zr2      1.0000 0.11989  0.50000  0.50000  Biso   1.000  Zr
  Zr3      1.0000 0.61989  0.00000  0.50000  Biso   1.000  Zr
  Zr4      1.0000 0.61989  0.50000  0.00000  Biso   1.000  Zr
  Zr5      1.0000 0.88011  0.00000  0.00000  Biso   1.000  Zr
  Zr6      1.0000 0.88011  0.50000  0.50000  Biso   1.000  Zr
  Zr7      1.0000 0.38011  0.00000  0.50000  Biso   1.000  Zr
  Zr8      1.0000 0.38011  0.50000  0.00000  Biso   1.000  Zr
  Zr9      1.0000 0.00000  0.11989  0.00000  Biso   1.000  Zr
  Zr10     1.0000 0.00000  0.61989  0.50000  Biso   1.000  Zr
  Zr11     1.0000 0.50000  0.11989  0.50000  Biso   1.000  Zr
  Zr12     1.0000 0.50000  0.61989  0.00000  Biso   1.000  Zr
  Zr13     1.0000 0.00000  0.88011  0.00000  Biso   1.000  Zr
  Zr14     1.0000 0.00000  0.38011  0.50000  Biso   1.000  Zr
  Zr15     1.0000 0.50000  0.88011  0.50000  Biso   1.000  Zr
  Zr16     1.0000 0.50000  0.38011  0.00000  Biso   1.000  Zr
  Zr17     1.0000 0.00000  0.00000  0.11989  Biso   1.000  Zr
  Zr18     1.0000 0.00000  0.50000  0.61989  Biso   1.000  Zr
  Zr19     1.0000 0.50000  0.00000  0.61989  Biso   1.000  Zr
  Zr20     1.0000 0.50000  0.50000  0.11989  Biso   1.000  Zr
  Zr21     1.0000 0.00000  0.00000  0.88011  Biso   1.000  Zr
  Zr22     1.0000 0.00000  0.50000  0.38011  Biso   1.000  Zr
  Zr23     1.0000 0.50000  0.00000  0.38011  Biso   1.000  Zr
  Zr24     1.0000 0.50000  0.50000  0.88011  Biso   1.000  Zr
  O1       1.0000 0.05610  0.44390  0.44390  Biso   1.000  O 
  O2       1.0000 0.55610  0.94390  0.44390  Biso   1.000  O 
  O3       1.0000 0.55610  0.44390  0.94390  Biso   1.000  O 
  O4       1.0000 0.44390  0.05610  0.44390  Biso   1.000  O 
  O5       1.0000 0.44390  0.55610  0.94390  Biso   1.000  O 
  O6       1.0000 0.94390  0.94390  0.05610  Biso   1.000  O 
  O7       1.0000 0.94390  0.44390  0.55610  Biso   1.000  O 
  O8       1.0000 0.05610  0.05610  0.05610  Biso   1.000  O 
  O9       1.0000 0.55610  0.55610  0.05610  Biso   1.000  O 
  O10      1.0000 0.94390  0.05610  0.05610  Biso   1.000  O 
  O11      1.0000 0.94390  0.55610  0.55610  Biso   1.000  O 
  O12      1.0000 0.44390  0.05610  0.55610  Biso   1.000  O 
  O13      1.0000 0.44390  0.55610  0.05610  Biso   1.000  O 
  O14      1.0000 0.05610  0.94390  0.05610  Biso   1.000  O 
  O15      1.0000 0.05610  0.44390  0.55610  Biso   1.000  O 
  O16      1.0000 0.55610  0.94390  0.55610  Biso   1.000  O 
  O17      1.0000 0.55610  0.44390  0.05610  Biso   1.000  O 
  O18      1.0000 0.94390  0.94390  0.94390  Biso   1.000  O 
  O19      1.0000 0.94390  0.44390  0.44390  Biso   1.000  O 
  O20      1.0000 0.44390  0.94390  0.44390  Biso   1.000  O 
  O21      1.0000 0.44390  0.44390  0.94390  Biso   1.000  O 
  O22      1.0000 0.05610  0.05610  0.94390  Biso   1.000  O 
  O23      1.0000 0.05610  0.55610  0.44390  Biso   1.000  O 
  O24      1.0000 0.55610  0.05610  0.44390  Biso   1.000  O 
  C1       1.0000 0.15360  0.00000  0.84640  Biso   1.000  C 
  O25      1.0000 0.17046  0.00000  0.90471  Biso   1.000  O 
  O26      1.0000 0.09529  0.00000  0.82954  Biso   1.000  O 
  C2       1.0000 0.20500  0.00000  0.79500  Biso   1.000  C 
  C3       1.0000 0.18437  0.00000  0.73249  Biso   1.000  C 
  H1       1.0000 0.13046  0.00000  0.72128  Biso   1.000  H 
  O27      1.0000 0.21643  0.98270  0.62025  Biso   1.000  O 
  C4       1.0000 0.23249  0.00000  0.68442  Biso   1.000  C 
  C5       1.0000 0.29500  0.00000  0.70500  Biso   1.000  C 
  C6       1.0000 0.31558  0.00000  0.76751  Biso   1.000  C 
  C7       1.0000 0.26751  0.00000  0.81563  Biso   1.000  C 
  H2       1.0000 0.27872  0.00000  0.86954  Biso   1.000  H 
  H3       1.0000 0.36949  0.00000  0.77872  Biso   1.000  H 
  O28      1.0000 0.40470  0.00000  0.67046  Biso   1.000  O 
  C8       1.0000 0.34640  0.00000  0.65360  Biso   1.000  C 
  O29      1.0000 0.32954  0.00000  0.59529  Biso   1.000  O 
  C9       1.0000 0.19814  0.03786  0.58523  Biso   1.000  C 
  C10      1.0000 0.17880  0.00500  0.52184  Biso   1.000  C 
  H4       1.0000 0.23749  0.07486  0.58512  Biso   1.000  H 
  H5       1.0000 0.15220  0.05924  0.60605  Biso   1.000  H 
  H6       1.0000 0.22331  0.99854  0.49375  Biso   1.000  H 
  C11      1.0000 0.13030  0.04117  0.47574  Biso   1.000  C 
  H7       1.0000 0.15555  0.95674  0.53110  Biso   1.000  H 
  H8       1.0000 0.13963  0.09223  0.46288  Biso   1.000  H 
  H9       1.0000 0.08165  0.03820  0.49901  Biso   1.000  H 
  H10      1.0000 0.12814  0.01491  0.42978  Biso   1.000  H 
  C12      1.0000 0.15360  0.50000  0.34640  Biso   1.000  C 
  O30      1.0000 0.17046  0.50000  0.40471  Biso   1.000  O 
  O31      1.0000 0.09529  0.50000  0.32954  Biso   1.000  O 
  C13      1.0000 0.20500  0.50000  0.29500  Biso   1.000  C 
  C14      1.0000 0.18437  0.50000  0.23249  Biso   1.000  C 
  H11      1.0000 0.13046  0.50000  0.22128  Biso   1.000  H 
  O32      1.0000 0.21380  0.47723  0.12273  Biso   1.000  O 
  C15      1.0000 0.23249  0.50000  0.18442  Biso   1.000  C 
  C16      1.0000 0.29500  0.50000  0.20500  Biso   1.000  C 
  C17      1.0000 0.31558  0.50000  0.26751  Biso   1.000  C 
  C18      1.0000 0.26751  0.50000  0.31563  Biso   1.000  C 
  H12      1.0000 0.27872  0.50000  0.36954  Biso   1.000  H 
  H13      1.0000 0.36949  0.50000  0.27872  Biso   1.000  H 
  O33      1.0000 0.40470  0.50000  0.17046  Biso   1.000  O 
  C19      1.0000 0.34640  0.50000  0.15360  Biso   1.000  C 
  O34      1.0000 0.32954  0.50000  0.09529  Biso   1.000  O 
  C20      1.0000 0.19234  0.52882  0.08358  Biso   1.000  C 
  C21      1.0000 0.17528  0.49920  0.01740  Biso   1.000  C 
  H14      1.0000 0.23029  0.56534  0.07713  Biso   1.000  H 
  H15      1.0000 0.14953  0.55152  0.10649  Biso   1.000  H 
  H16      1.0000 0.22259  0.49359  0.99095  Biso   1.000  H 
  C22      1.0000 0.12553  0.53500  0.97304  Biso   1.000  C 
  H17      1.0000 0.15595  0.45006  0.02661  Biso   1.000  H 
  H18      1.0000 0.14313  0.58193  0.95827  Biso   1.000  H 
  H19      1.0000 0.07950  0.53988  0.99833  Biso   1.000  H 
  H20      1.0000 0.12239  0.50627  0.92823  Biso   1.000  H 
  C23      1.0000 0.65360  0.00000  0.34640  Biso   1.000  C 
  O35      1.0000 0.67046  0.00000  0.40471  Biso   1.000  O 
  O36      1.0000 0.59529  0.00000  0.32954  Biso   1.000  O 
  C24      1.0000 0.70500  0.00000  0.29500  Biso   1.000  C 
  C25      1.0000 0.68437  0.00000  0.23249  Biso   1.000  C 
  H21      1.0000 0.63046  0.00000  0.22128  Biso   1.000  H 
  O37      1.0000 0.71542  0.97498  0.12039  Biso   1.000  O 
  C26      1.0000 0.73248  0.00000  0.18442  Biso   1.000  C 
  C27      1.0000 0.79499  0.00000  0.20500  Biso   1.000  C 
  C28      1.0000 0.81558  0.00000  0.26751  Biso   1.000  C 
  C29      1.0000 0.76751  0.00000  0.31563  Biso   1.000  C 
  H22      1.0000 0.77872  0.00000  0.36954  Biso   1.000  H 
  H23      1.0000 0.86949  0.00000  0.27872  Biso   1.000  H 
  O38      1.0000 0.90470  0.00000  0.17046  Biso   1.000  O 
  C30      1.0000 0.84639  0.00000  0.15360  Biso   1.000  C 
  O39      1.0000 0.82953  0.00000  0.09529  Biso   1.000  O 
  C31      1.0000 0.69064  0.02144  0.08028  Biso   1.000  C 
  C32      1.0000 0.67375  0.99248  0.01380  Biso   1.000  C 
  H24      1.0000 0.72819  0.05805  0.07408  Biso   1.000  H 
  H25      1.0000 0.64793  0.04342  0.10682  Biso   1.000  H 
  H26      1.0000 0.71800  0.98883  0.98198  Biso   1.000  H 
  C33      1.0000 0.62322  0.03119  0.97931  Biso   1.000  C 
  H27      1.0000 0.65484  0.94308  0.02084  Biso   1.000  H 
  H28      1.0000 0.62918  0.08343  0.98547  Biso   1.000  H 
  H29      1.0000 0.57558  0.01198  0.99319  Biso   1.000  H 
  H30      1.0000 0.63159  0.01794  0.92996  Biso   1.000  H 
  C34      1.0000 0.65360  0.50000  0.84640  Biso   1.000  C 
  O40      1.0000 0.67046  0.50000  0.90471  Biso   1.000  O 
  O41      1.0000 0.59529  0.50000  0.82954  Biso   1.000  O 
  C35      1.0000 0.70500  0.50000  0.79500  Biso   1.000  C 
  C36      1.0000 0.68437  0.50000  0.73249  Biso   1.000  C 
  H31      1.0000 0.63046  0.50000  0.72128  Biso   1.000  H 
  O42      1.0000 0.71367  0.47611  0.62196  Biso   1.000  O 
  C37      1.0000 0.73248  0.50000  0.68442  Biso   1.000  C 
  C38      1.0000 0.79499  0.50000  0.70500  Biso   1.000  C 
  C39      1.0000 0.81558  0.50000  0.76751  Biso   1.000  C 
  C40      1.0000 0.76751  0.50000  0.81563  Biso   1.000  C 
  H32      1.0000 0.77872  0.50000  0.86954  Biso   1.000  H 
  H33      1.0000 0.86949  0.50000  0.77872  Biso   1.000  H 
  O43      1.0000 0.90470  0.50000  0.67046  Biso   1.000  O 
  C41      1.0000 0.84639  0.50000  0.65360  Biso   1.000  C 
  O44      1.0000 0.82953  0.50000  0.59529  Biso   1.000  O 
  C42      1.0000 0.68820  0.52769  0.58470  Biso   1.000  C 
  C43      1.0000 0.68486  0.49985  0.51669  Biso   1.000  C 
  H34      1.0000 0.71553  0.57290  0.58856  Biso   1.000  H 
  H35      1.0000 0.63968  0.53928  0.60194  Biso   1.000  H 
  H36      1.0000 0.73298  0.50428  0.49237  Biso   1.000  H 
  C44      1.0000 0.63055  0.52239  0.47215  Biso   1.000  C 
  H37      1.0000 0.67151  0.44883  0.52288  Biso   1.000  H 
  H38      1.0000 0.64074  0.57386  0.45736  Biso   1.000  H 
  H39      1.0000 0.58271  0.51491  0.49587  Biso   1.000  H 
  H40      1.0000 0.63127  0.49167  0.42860  Biso   1.000  H 
  C45      1.0000 0.84640  0.00000  0.84640  Biso   1.000  C 
  O45      1.0000 0.82954  0.00000  0.90471  Biso   1.000  O 
  O46      1.0000 0.90471  0.00000  0.82954  Biso   1.000  O 
  C46      1.0000 0.79500  0.00000  0.79500  Biso   1.000  C 
  C47      1.0000 0.81563  0.00000  0.73249  Biso   1.000  C 
  H41      1.0000 0.86954  0.00000  0.72128  Biso   1.000  H 
  O47      1.0000 0.78633  0.01340  0.61774  Biso   1.000  O 
  C48      1.0000 0.76752  0.00000  0.68442  Biso   1.000  C 
  C49      1.0000 0.70501  0.00000  0.70500  Biso   1.000  C 
  C50      1.0000 0.68442  0.00000  0.76751  Biso   1.000  C 
  C51      1.0000 0.73249  0.00000  0.81563  Biso   1.000  C 
  H42      1.0000 0.72128  0.00000  0.86954  Biso   1.000  H 
  H43      1.0000 0.63051  0.00000  0.77872  Biso   1.000  H 
  O48      1.0000 0.59530  0.00000  0.67046  Biso   1.000  O 
  C52      1.0000 0.65361  0.00000  0.65360  Biso   1.000  C 
  O49      1.0000 0.67047  0.00000  0.59529  Biso   1.000  O 
  C53      1.0000 0.80635  0.95560  0.58694  Biso   1.000  C 
  C54      1.0000 0.88039  0.94319  0.59565  Biso   1.000  C 
  H44      1.0000 0.79392  0.96406  0.53627  Biso   1.000  H 
  H45      1.0000 0.77746  0.91277  0.60221  Biso   1.000  H 
  H46      1.0000 0.90650  0.98907  0.58900  Biso   1.000  H 
  C55      1.0000 0.90891  0.89713  0.54658  Biso   1.000  C 
  H47      1.0000 0.89302  0.92544  0.64504  Biso   1.000  H 
  H48      1.0000 0.91830  0.85012  0.56605  Biso   1.000  H 
  H49      1.0000 0.95431  0.92030  0.52759  Biso   1.000  H 
  H50      1.0000 0.87683  0.89461  0.50407  Biso   1.000  H 
  C56      1.0000 0.84640  0.50000  0.34640  Biso   1.000  C 
  O50      1.0000 0.82954  0.50000  0.40471  Biso   1.000  O 
  O51      1.0000 0.90471  0.50000  0.32954  Biso   1.000  O 
  C57      1.0000 0.79500  0.50000  0.29500  Biso   1.000  C 
  C58      1.0000 0.81563  0.50000  0.23249  Biso   1.000  C 
  H51      1.0000 0.86954  0.50000  0.22128  Biso   1.000  H 
  O52      1.0000 0.78725  0.50991  0.11716  Biso   1.000  O 
  C59      1.0000 0.76752  0.50000  0.18442  Biso   1.000  C 
  C60      1.0000 0.70501  0.50000  0.20500  Biso   1.000  C 
  C61      1.0000 0.68442  0.50000  0.26751  Biso   1.000  C 
  C62      1.0000 0.73249  0.50000  0.31563  Biso   1.000  C 
  H52      1.0000 0.72128  0.50000  0.36954  Biso   1.000  H 
  H53      1.0000 0.63051  0.50000  0.27872  Biso   1.000  H 
  O53      1.0000 0.59530  0.50000  0.17046  Biso   1.000  O 
  C63      1.0000 0.65361  0.50000  0.15360  Biso   1.000  C 
  O54      1.0000 0.67047  0.50000  0.09529  Biso   1.000  O 
  C64      1.0000 0.81896  0.45415  0.09538  Biso   1.000  C 
  C65      1.0000 0.85343  0.46742  0.03104  Biso   1.000  C 
  H54      1.0000 0.78276  0.41554  0.09163  Biso   1.000  H 
  H55      1.0000 0.85853  0.44088  0.12799  Biso   1.000  H 
  H56      1.0000 0.81798  0.47381  0.99410  Biso   1.000  H 
  C66      1.0000 0.89815  0.41163  0.01414  Biso   1.000  C 
  H57      1.0000 0.88169  0.51379  0.03654  Biso   1.000  H 
  H58      1.0000 0.89455  0.37020  0.04741  Biso   1.000  H 
  H59      1.0000 0.94848  0.43075  0.01956  Biso   1.000  H 
  H60      1.0000 0.88978  0.39491  0.96336  Biso   1.000  H 
  C67      1.0000 0.34640  0.00000  0.34640  Biso   1.000  C 
  O55      1.0000 0.32954  0.00000  0.40471  Biso   1.000  O 
  O56      1.0000 0.40471  0.00000  0.32954  Biso   1.000  O 
  C68      1.0000 0.29500  0.00000  0.29500  Biso   1.000  C 
  C69      1.0000 0.31563  0.00000  0.23249  Biso   1.000  C 
  H61      1.0000 0.36954  0.00000  0.22128  Biso   1.000  H 
  O57      1.0000 0.28393  0.01490  0.11930  Biso   1.000  O 
  C70      1.0000 0.26751  0.00000  0.18442  Biso   1.000  C 
  C71      1.0000 0.20500  0.00000  0.20500  Biso   1.000  C 
  C72      1.0000 0.18442  0.00000  0.26751  Biso   1.000  C 
  C73      1.0000 0.23249  0.00000  0.31563  Biso   1.000  C 
  H62      1.0000 0.22128  0.00000  0.36954  Biso   1.000  H 
  H63      1.0000 0.13051  0.00000  0.27872  Biso   1.000  H 
  O58      1.0000 0.09530  0.00000  0.17046  Biso   1.000  O 
  C74      1.0000 0.15360  0.00000  0.15360  Biso   1.000  C 
  O59      1.0000 0.17046  0.00000  0.09529  Biso   1.000  O 
  C75      1.0000 0.31107  0.95773  0.09129  Biso   1.000  C 
  C76      1.0000 0.35892  0.97273  0.03480  Biso   1.000  C 
  H64      1.0000 0.26978  0.93004  0.07378  Biso   1.000  H 
  H65      1.0000 0.33921  0.92916  0.12647  Biso   1.000  H 
  H66      1.0000 0.33010  0.98733  0.99100  Biso   1.000  H 
  C77      1.0000 0.40150  0.91238  0.01405  Biso   1.000  C 
  H67      1.0000 0.39233  0.01199  0.05084  Biso   1.000  H 
  H68      1.0000 0.39424  0.87230  0.04648  Biso   1.000  H 
  H69      1.0000 0.45259  0.92628  0.01614  Biso   1.000  H 
  H70      1.0000 0.38876  0.89571  0.96424  Biso   1.000  H 
  C78      1.0000 0.34640  0.50000  0.84640  Biso   1.000  C 
  O60      1.0000 0.32954  0.50000  0.90471  Biso   1.000  O 
  O61      1.0000 0.40471  0.50000  0.82954  Biso   1.000  O 
  C79      1.0000 0.29500  0.50000  0.79500  Biso   1.000  C 
  C80      1.0000 0.31563  0.50000  0.73249  Biso   1.000  C 
  H71      1.0000 0.36954  0.50000  0.72128  Biso   1.000  H 
  O62      1.0000 0.28463  0.51174  0.61936  Biso   1.000  O 
  C81      1.0000 0.26751  0.50000  0.68442  Biso   1.000  C 
  C82      1.0000 0.20500  0.50000  0.70500  Biso   1.000  C 
  C83      1.0000 0.18442  0.50000  0.76751  Biso   1.000  C 
  C84      1.0000 0.23249  0.50000  0.81563  Biso   1.000  C 
  H72      1.0000 0.22128  0.50000  0.86954  Biso   1.000  H 
  H73      1.0000 0.13051  0.50000  0.77872  Biso   1.000  H 
  O63      1.0000 0.09530  0.50000  0.67046  Biso   1.000  O 
  C85      1.0000 0.15360  0.50000  0.65360  Biso   1.000  C 
  O64      1.0000 0.17046  0.50000  0.59529  Biso   1.000  O 
  C86      1.0000 0.30816  0.45308  0.59229  Biso   1.000  C 
  C87      1.0000 0.38020  0.44477  0.58825  Biso   1.000  C 
  H74      1.0000 0.29108  0.45528  0.54299  Biso   1.000  H 
  H75      1.0000 0.28851  0.40886  0.61319  Biso   1.000  H 
  H76      1.0000 0.40308  0.47804  0.55297  Biso   1.000  H 
  C88      1.0000 0.40089  0.37546  0.57227  Biso   1.000  C 
  H77      1.0000 0.39928  0.45156  0.63553  Biso   1.000  H 
  H78      1.0000 0.37024  0.33785  0.59774  Biso   1.000  H 
  H79      1.0000 0.45226  0.36607  0.58262  Biso   1.000  H 
  H80      1.0000 0.39506  0.37122  0.51885  Biso   1.000  H 
  C89      1.0000 0.84640  0.15360  0.00000  Biso   1.000  C 
  O65      1.0000 0.90471  0.17046  0.00000  Biso   1.000  O 
  O66      1.0000 0.82954  0.09529  0.00000  Biso   1.000  O 
  C90      1.0000 0.79500  0.20500  0.00000  Biso   1.000  C 
  C91      1.0000 0.73249  0.18437  0.00000  Biso   1.000  C 
  H81      1.0000 0.72128  0.13046  0.00000  Biso   1.000  H 
  O67      1.0000 0.62206  0.21459  0.97867  Biso   1.000  O 
  C92      1.0000 0.68442  0.23249  0.00000  Biso   1.000  C 
  C93      1.0000 0.70500  0.29500  0.00000  Biso   1.000  C 
  C94      1.0000 0.76751  0.31558  0.00000  Biso   1.000  C 
  C95      1.0000 0.81563  0.26751  0.00000  Biso   1.000  C 
  H82      1.0000 0.86954  0.27872  0.00000  Biso   1.000  H 
  H83      1.0000 0.77872  0.36949  0.00000  Biso   1.000  H 
  O68      1.0000 0.67046  0.40470  0.00000  Biso   1.000  O 
  C96      1.0000 0.65360  0.34640  0.00000  Biso   1.000  C 
  O69      1.0000 0.59529  0.32954  0.00000  Biso   1.000  O 
  C97      1.0000 0.57957  0.19593  0.02940  Biso   1.000  C 
  C98      1.0000 0.51644  0.17327  0.99558  Biso   1.000  C 
  H84      1.0000 0.56906  0.23772  0.06071  Biso   1.000  H 
  H85      1.0000 0.60080  0.15736  0.06041  Biso   1.000  H 
  H86      1.0000 0.49182  0.21840  0.97913  Biso   1.000  H 
  C99      1.0000 0.46841  0.13430  0.03781  Biso   1.000  C 
  H87      1.0000 0.52981  0.14292  0.95296  Biso   1.000  H 
  H88      1.0000 0.44745  0.15918  0.07947  Biso   1.000  H 
  H89      1.0000 0.49152  0.08868  0.04925  Biso   1.000  H 
  H90      1.0000 0.42741  0.12615  0.00665  Biso   1.000  H 
  C100     1.0000 0.84640  0.65360  0.50000  Biso   1.000  C 
  O70      1.0000 0.90471  0.67046  0.50000  Biso   1.000  O 
  O71      1.0000 0.82954  0.59529  0.50000  Biso   1.000  O 
  C101     1.0000 0.79500  0.70500  0.50000  Biso   1.000  C 
  C102     1.0000 0.73249  0.68437  0.50000  Biso   1.000  C 
  H91      1.0000 0.72128  0.63046  0.50000  Biso   1.000  H 
  O72      1.0000 0.62146  0.71504  0.47375  Biso   1.000  O 
  C103     1.0000 0.68442  0.73248  0.50000  Biso   1.000  C 
  C104     1.0000 0.70500  0.79499  0.50000  Biso   1.000  C 
  C105     1.0000 0.76751  0.81558  0.50000  Biso   1.000  C 
  C106     1.0000 0.81563  0.76751  0.50000  Biso   1.000  C 
  H92      1.0000 0.86954  0.77872  0.50000  Biso   1.000  H 
  H93      1.0000 0.77872  0.86949  0.50000  Biso   1.000  H 
  O73      1.0000 0.67046  0.90470  0.50000  Biso   1.000  O 
  C107     1.0000 0.65360  0.84639  0.50000  Biso   1.000  C 
  O74      1.0000 0.59529  0.82953  0.50000  Biso   1.000  O 
  C108     1.0000 0.58112  0.69079  0.52298  Biso   1.000  C 
  C109     1.0000 0.51606  0.67793  0.49157  Biso   1.000  C 
  H94      1.0000 0.57539  0.72624  0.56286  Biso   1.000  H 
  H95      1.0000 0.60233  0.64474  0.54310  Biso   1.000  H 
  H96      1.0000 0.48774  0.72357  0.48707  Biso   1.000  H 
  C110     1.0000 0.48002  0.62807  0.53255  Biso   1.000  C 
  H97      1.0000 0.52338  0.65377  0.44359  Biso   1.000  H 
  H98      1.0000 0.47033  0.64396  0.58257  Biso   1.000  H 
  H99      1.0000 0.50376  0.58132  0.53268  Biso   1.000  H 
  H100     1.0000 0.43240  0.62279  0.50901  Biso   1.000  H 
  C111     1.0000 0.34640  0.15360  0.50000  Biso   1.000  C 
  O75      1.0000 0.40471  0.17046  0.50000  Biso   1.000  O 
  O76      1.0000 0.32954  0.09529  0.50000  Biso   1.000  O 
  C112     1.0000 0.29500  0.20500  0.50000  Biso   1.000  C 
  C113     1.0000 0.23249  0.18437  0.50000  Biso   1.000  C 
  H101     1.0000 0.22128  0.13046  0.50000  Biso   1.000  H 
  O77      1.0000 0.11943  0.21338  0.48053  Biso   1.000  O 
  C114     1.0000 0.18442  0.23249  0.50000  Biso   1.000  C 
  C115     1.0000 0.20500  0.29500  0.50000  Biso   1.000  C 
  C116     1.0000 0.26751  0.31558  0.50000  Biso   1.000  C 
  C117     1.0000 0.31563  0.26751  0.50000  Biso   1.000  C 
  H102     1.0000 0.36954  0.27872  0.50000  Biso   1.000  H 
  H103     1.0000 0.27872  0.36949  0.50000  Biso   1.000  H 
  O78      1.0000 0.17046  0.40470  0.50000  Biso   1.000  O 
  C118     1.0000 0.15360  0.34640  0.50000  Biso   1.000  C 
  O79      1.0000 0.09529  0.32954  0.50000  Biso   1.000  O 
  C119     1.0000 0.08004  0.19858  0.53392  Biso   1.000  C 
  C120     1.0000 0.01014  0.18624  0.50889  Biso   1.000  C 
  H104     1.0000 0.08040  0.23903  0.57085  Biso   1.000  H 
  H105     1.0000 0.09832  0.15484  0.55825  Biso   1.000  H 
  H106     1.0000 0.97702  0.22872  0.51121  Biso   1.000  H 
  C121     1.0000 0.97750  0.13255  0.54370  Biso   1.000  C 
  H107     1.0000 0.01706  0.17227  0.45658  Biso   1.000  H 
  H108     1.0000 0.95687  0.14438  0.59115  Biso   1.000  H 
  H109     1.0000 0.00795  0.09046  0.54903  Biso   1.000  H 
  H110     1.0000 0.93632  0.12161  0.51438  Biso   1.000  H 
  C122     1.0000 0.34640  0.65360  0.00000  Biso   1.000  C 
  O80      1.0000 0.40471  0.67046  0.00000  Biso   1.000  O 
  O81      1.0000 0.32954  0.59529  0.00000  Biso   1.000  O 
  C123     1.0000 0.29500  0.70500  0.00000  Biso   1.000  C 
  C124     1.0000 0.23249  0.68437  0.00000  Biso   1.000  C 
  H111     1.0000 0.22128  0.63046  0.00000  Biso   1.000  H 
  O82      1.0000 0.12068  0.71303  0.98232  Biso   1.000  O 
  C125     1.0000 0.18442  0.73248  0.00000  Biso   1.000  C 
  C126     1.0000 0.20500  0.79499  0.00000  Biso   1.000  C 
  C127     1.0000 0.26751  0.81558  0.00000  Biso   1.000  C 
  C128     1.0000 0.31563  0.76751  0.00000  Biso   1.000  C 
  H112     1.0000 0.36954  0.77872  0.00000  Biso   1.000  H 
  H113     1.0000 0.27872  0.86949  0.00000  Biso   1.000  H 
  O83      1.0000 0.17046  0.90470  0.00000  Biso   1.000  O 
  C129     1.0000 0.15360  0.84639  0.00000  Biso   1.000  C 
  O84      1.0000 0.09529  0.82953  0.00000  Biso   1.000  O 
  C130     1.0000 0.08391  0.68911  0.03447  Biso   1.000  C 
  C131     1.0000 0.01459  0.68160  0.00718  Biso   1.000  C 
  H114     1.0000 0.08468  0.72330  0.07450  Biso   1.000  H 
  H115     1.0000 0.10450  0.64205  0.05021  Biso   1.000  H 
  H116     1.0000 0.98986  0.72966  0.01286  Biso   1.000  H 
  C132     1.0000 0.96855  0.62877  0.03116  Biso   1.000  C 
  H117     1.0000 0.02067  0.67099  0.95564  Biso   1.000  H 
  H118     1.0000 0.95768  0.63787  0.08168  Biso   1.000  H 
  H119     1.0000 0.98911  0.58135  0.02473  Biso   1.000  H 
  H120     1.0000 0.92294  0.63343  0.00379  Biso   1.000  H 
  C133     1.0000 0.84640  0.84640  0.00000  Biso   1.000  C 
  O85      1.0000 0.90471  0.82954  0.00000  Biso   1.000  O 
  O86      1.0000 0.82954  0.90471  0.00000  Biso   1.000  O 
  C134     1.0000 0.79500  0.79500  0.00000  Biso   1.000  C 
  C135     1.0000 0.73249  0.81563  0.00000  Biso   1.000  C 
  H121     1.0000 0.72128  0.86954  0.00000  Biso   1.000  H 
  O87      1.0000 0.61793  0.78549  0.00319  Biso   1.000  O 
  C136     1.0000 0.68442  0.76752  0.00000  Biso   1.000  C 
  C137     1.0000 0.70500  0.70501  0.00000  Biso   1.000  C 
  C138     1.0000 0.76751  0.68442  0.00000  Biso   1.000  C 
  C139     1.0000 0.81563  0.73249  0.00000  Biso   1.000  C 
  H122     1.0000 0.86954  0.72128  0.00000  Biso   1.000  H 
  H123     1.0000 0.77872  0.63051  0.00000  Biso   1.000  H 
  O88      1.0000 0.67046  0.59530  0.00000  Biso   1.000  O 
  C140     1.0000 0.65360  0.65361  0.00000  Biso   1.000  C 
  O89      1.0000 0.59529  0.67047  0.00000  Biso   1.000  O 
  C141     1.0000 0.59865  0.81381  0.94453  Biso   1.000  C 
  C142     1.0000 0.53910  0.85488  0.95724  Biso   1.000  C 
  H124     1.0000 0.58715  0.77285  0.91284  Biso   1.000  H 
  H125     1.0000 0.63647  0.84338  0.92184  Biso   1.000  H 
  H126     1.0000 0.49534  0.82683  0.96898  Biso   1.000  H 
  C143     1.0000 0.52530  0.90206  0.90361  Biso   1.000  C 
  H127     1.0000 0.55072  0.88417  0.00083  Biso   1.000  H 
  H128     1.0000 0.56027  0.89877  0.86166  Biso   1.000  H 
  H129     1.0000 0.52797  0.95212  0.92142  Biso   1.000  H 
  H130     1.0000 0.47657  0.89463  0.88445  Biso   1.000  H 
  C144     1.0000 0.84640  0.34640  0.50000  Biso   1.000  C 
  O90      1.0000 0.90471  0.32954  0.50000  Biso   1.000  O 
  O91      1.0000 0.82954  0.40471  0.50000  Biso   1.000  O 
  C145     1.0000 0.79500  0.29500  0.50000  Biso   1.000  C 
  C146     1.0000 0.73249  0.31563  0.50000  Biso   1.000  C 
  H131     1.0000 0.72128  0.36954  0.50000  Biso   1.000  H 
  O92      1.0000 0.61935  0.28705  0.51265  Biso   1.000  O 
  C147     1.0000 0.68442  0.26751  0.50000  Biso   1.000  C 
  C148     1.0000 0.70500  0.20500  0.50000  Biso   1.000  C 
  C149     1.0000 0.76751  0.18442  0.50000  Biso   1.000  C 
  C150     1.0000 0.81563  0.23249  0.50000  Biso   1.000  C 
  H132     1.0000 0.86954  0.22128  0.50000  Biso   1.000  H 
  H133     1.0000 0.77872  0.13051  0.50000  Biso   1.000  H 
  O93      1.0000 0.67046  0.09530  0.50000  Biso   1.000  O 
  C151     1.0000 0.65360  0.15360  0.50000  Biso   1.000  C 
  O94      1.0000 0.59529  0.17046  0.50000  Biso   1.000  O 
  C152     1.0000 0.59788  0.32037  0.45607  Biso   1.000  C 
  C153     1.0000 0.53237  0.35557  0.46713  Biso   1.000  C 
  H134     1.0000 0.58891  0.28279  0.41864  Biso   1.000  H 
  H135     1.0000 0.63248  0.35595  0.43761  Biso   1.000  H 
  H136     1.0000 0.49200  0.31938  0.47084  Biso   1.000  H 
  C154     1.0000 0.51695  0.40605  0.41663  Biso   1.000  C 
  H137     1.0000 0.53405  0.38121  0.51418  Biso   1.000  H 
  H138     1.0000 0.55742  0.40774  0.37982  Biso   1.000  H 
  H139     1.0000 0.51526  0.45386  0.43935  Biso   1.000  H 
  H140     1.0000 0.46912  0.39597  0.39507  Biso   1.000  H 
  C155     1.0000 0.34640  0.84640  0.50000  Biso   1.000  C 
  O95      1.0000 0.40471  0.82954  0.50000  Biso   1.000  O 
  O96      1.0000 0.32954  0.90471  0.50000  Biso   1.000  O 
  C156     1.0000 0.29500  0.79500  0.50000  Biso   1.000  C 
  C157     1.0000 0.23249  0.81563  0.50000  Biso   1.000  C 
  H141     1.0000 0.22128  0.86954  0.50000  Biso   1.000  H 
  O97      1.0000 0.11834  0.78579  0.51479  Biso   1.000  O 
  C158     1.0000 0.18442  0.76752  0.50000  Biso   1.000  C 
  C159     1.0000 0.20500  0.70501  0.50000  Biso   1.000  C 
  C160     1.0000 0.26751  0.68442  0.50000  Biso   1.000  C 
  C161     1.0000 0.31563  0.73249  0.50000  Biso   1.000  C 
  H142     1.0000 0.36954  0.72128  0.50000  Biso   1.000  H 
  H143     1.0000 0.27872  0.63051  0.50000  Biso   1.000  H 
  O98      1.0000 0.17046  0.59530  0.50000  Biso   1.000  O 
  C162     1.0000 0.15360  0.65361  0.50000  Biso   1.000  C 
  O99      1.0000 0.09529  0.67047  0.50000  Biso   1.000  O 
  C163     1.0000 0.09156  0.80368  0.45216  Biso   1.000  C 
  C164     1.0000 0.11896  0.86885  0.42310  Biso   1.000  C 
  H144     1.0000 0.03946  0.81027  0.46088  Biso   1.000  H 
  H145     1.0000 0.09671  0.76423  0.41606  Biso   1.000  H 
  H146     1.0000 0.11232  0.90590  0.46109  Biso   1.000  H 
  C165     1.0000 0.07773  0.89257  0.36903  Biso   1.000  C 
  H147     1.0000 0.17020  0.86815  0.40434  Biso   1.000  H 
  H148     1.0000 0.09465  0.86577  0.32540  Biso   1.000  H 
  H149     1.0000 0.08082  0.94547  0.36253  Biso   1.000  H 
  H150     1.0000 0.02525  0.88097  0.37943  Biso   1.000  H 
  C166     1.0000 0.34640  0.34640  0.00000  Biso   1.000  C 
  O100     1.0000 0.40471  0.32954  0.00000  Biso   1.000  O 
  O101     1.0000 0.32954  0.40471  0.00000  Biso   1.000  O 
  C167     1.0000 0.29500  0.29500  0.00000  Biso   1.000  C 
  C168     1.0000 0.23249  0.31563  0.00000  Biso   1.000  C 
  H151     1.0000 0.22128  0.36954  0.00000  Biso   1.000  H 
  O102     1.0000 0.11850  0.28622  0.01024  Biso   1.000  O 
  C169     1.0000 0.18442  0.26751  0.00000  Biso   1.000  C 
  C170     1.0000 0.20500  0.20500  0.00000  Biso   1.000  C 
  C171     1.0000 0.26751  0.18442  0.00000  Biso   1.000  C 
  C172     1.0000 0.31563  0.23249  0.00000  Biso   1.000  C 
  H152     1.0000 0.36954  0.22128  0.00000  Biso   1.000  H 
  H153     1.0000 0.27872  0.13051  0.00000  Biso   1.000  H 
  O103     1.0000 0.17046  0.09530  0.00000  Biso   1.000  O 
  C173     1.0000 0.15360  0.15360  0.00000  Biso   1.000  C 
  O104     1.0000 0.09529  0.17046  0.00000  Biso   1.000  O 
  C174     1.0000 0.09755  0.31704  0.95408  Biso   1.000  C 
  C175     1.0000 0.03591  0.35320  0.96786  Biso   1.000  C 
  H154     1.0000 0.08916  0.28041  0.91599  Biso   1.000  H 
  H155     1.0000 0.13351  0.35338  0.93875  Biso   1.000  H 
  H156     1.0000 0.99429  0.32075  0.97122  Biso   1.000  H 
  C176     1.0000 0.02388  0.39968  0.91334  Biso   1.000  C 
  H157     1.0000 0.04137  0.37776  0.01482  Biso   1.000  H 
  H158     1.0000 0.05775  0.39586  0.87177  Biso   1.000  H 
  H159     1.0000 0.03183  0.44667  0.93433  Biso   1.000  H 
  H160     1.0000 0.97389  0.39508  0.89341  Biso   1.000  H 
  C177     1.0000 0.00000  0.84640  0.15360  Biso   1.000  C 
  O105     1.0000 0.00000  0.90471  0.17046  Biso   1.000  O 
  O106     1.0000 0.00000  0.82954  0.09529  Biso   1.000  O 
  C178     1.0000 0.00000  0.79500  0.20500  Biso   1.000  C 
  C179     1.0000 0.00000  0.73249  0.18437  Biso   1.000  C 
  H161     1.0000 0.00000  0.72128  0.13046  Biso   1.000  H 
  O107     1.0000 0.97488  0.62286  0.21462  Biso   1.000  O 
  C180     1.0000 0.00000  0.68442  0.23249  Biso   1.000  C 
  C181     1.0000 0.00000  0.70500  0.29500  Biso   1.000  C 
  C182     1.0000 0.00000  0.76751  0.31558  Biso   1.000  C 
  C183     1.0000 0.00000  0.81563  0.26751  Biso   1.000  C 
  H162     1.0000 0.00000  0.86954  0.27872  Biso   1.000  H 
  H163     1.0000 0.00000  0.77872  0.36949  Biso   1.000  H 
  O108     1.0000 0.00000  0.67046  0.40470  Biso   1.000  O 
  C184     1.0000 0.00000  0.65360  0.34640  Biso   1.000  C 
  O109     1.0000 0.00000  0.59529  0.32954  Biso   1.000  O 
  C185     1.0000 0.02300  0.58065  0.19110  Biso   1.000  C 
  C186     1.0000 0.98930  0.51931  0.16579  Biso   1.000  C 
  H164     1.0000 0.05582  0.56727  0.22910  Biso   1.000  H 
  H165     1.0000 0.05051  0.60553  0.15182  Biso   1.000  H 
  H166     1.0000 0.97492  0.48998  0.20808  Biso   1.000  H 
  C187     1.0000 0.02341  0.47519  0.11343  Biso   1.000  C 
  H167     1.0000 0.94488  0.53860  0.14323  Biso   1.000  H 
  H168     1.0000 0.07490  0.47088  0.12535  Biso   1.000  H 
  H169     1.0000 0.01716  0.49415  0.06556  Biso   1.000  H 
  H170     1.0000 0.00180  0.42691  0.11709  Biso   1.000  H 
  C188     1.0000 0.00000  0.34640  0.65360  Biso   1.000  C 
  O110     1.0000 0.00000  0.40471  0.67046  Biso   1.000  O 
  O111     1.0000 0.00000  0.32954  0.59529  Biso   1.000  O 
  C189     1.0000 0.00000  0.29500  0.70500  Biso   1.000  C 
  C190     1.0000 0.00000  0.23249  0.68437  Biso   1.000  C 
  H171     1.0000 0.00000  0.22128  0.63046  Biso   1.000  H 
  O112     1.0000 0.97740  0.11920  0.71471  Biso   1.000  O 
  C191     1.0000 0.00000  0.18442  0.73248  Biso   1.000  C 
  C192     1.0000 0.00000  0.20500  0.79499  Biso   1.000  C 
  C193     1.0000 0.00000  0.26751  0.81558  Biso   1.000  C 
  C194     1.0000 0.00000  0.31563  0.76751  Biso   1.000  C 
  H172     1.0000 0.00000  0.36954  0.77872  Biso   1.000  H 
  H173     1.0000 0.00000  0.27872  0.86949  Biso   1.000  H 
  O113     1.0000 0.00000  0.17046  0.90470  Biso   1.000  O 
  C195     1.0000 0.00000  0.15360  0.84639  Biso   1.000  C 
  O114     1.0000 0.00000  0.09529  0.82953  Biso   1.000  O 
  C196     1.0000 0.03201  0.08359  0.69840  Biso   1.000  C 
  C197     1.0000 0.01296  0.01178  0.69365  Biso   1.000  C 
  H174     1.0000 0.07137  0.08848  0.73426  Biso   1.000  H 
  H175     1.0000 0.04996  0.10166  0.64906  Biso   1.000  H 
  H176     1.0000 0.01545  0.98657  0.74107  Biso   1.000  H 
  C198     1.0000 0.04344  0.97827  0.63568  Biso   1.000  C 
  H177     1.0000 0.96224  0.01249  0.67881  Biso   1.000  H 
  H178     1.0000 0.09541  0.97330  0.63537  Biso   1.000  H 
  H179     1.0000 0.02951  0.00320  0.59177  Biso   1.000  H 
  H180     1.0000 0.02474  0.92813  0.63159  Biso   1.000  H 
  C199     1.0000 0.50000  0.84640  0.65360  Biso   1.000  C 
  O115     1.0000 0.50000  0.90471  0.67046  Biso   1.000  O 
  O116     1.0000 0.50000  0.82954  0.59529  Biso   1.000  O 
  C200     1.0000 0.50000  0.79500  0.70500  Biso   1.000  C 
  C201     1.0000 0.50000  0.73249  0.68437  Biso   1.000  C 
  H181     1.0000 0.50000  0.72128  0.63046  Biso   1.000  H 
  O117     1.0000 0.48296  0.62001  0.71193  Biso   1.000  O 
  C202     1.0000 0.50000  0.68442  0.73248  Biso   1.000  C 
  C203     1.0000 0.50000  0.70500  0.79499  Biso   1.000  C 
  C204     1.0000 0.50000  0.76751  0.81558  Biso   1.000  C 
  C205     1.0000 0.50000  0.81563  0.76751  Biso   1.000  C 
  H182     1.0000 0.50000  0.86954  0.77872  Biso   1.000  H 
  H183     1.0000 0.50000  0.77872  0.86949  Biso   1.000  H 
  O118     1.0000 0.50000  0.67046  0.90470  Biso   1.000  O 
  C206     1.0000 0.50000  0.65360  0.84639  Biso   1.000  C 
  O119     1.0000 0.50000  0.59529  0.82953  Biso   1.000  O 
  C207     1.0000 0.53692  0.58312  0.69294  Biso   1.000  C 
  C208     1.0000 0.50654  0.51494  0.68521  Biso   1.000  C 
  H184     1.0000 0.57726  0.58381  0.72942  Biso   1.000  H 
  H185     1.0000 0.55401  0.60128  0.64480  Biso   1.000  H 
  H186     1.0000 0.50211  0.49207  0.73362  Biso   1.000  H 
  C209     1.0000 0.53698  0.47032  0.63935  Biso   1.000  C 
  H187     1.0000 0.45846  0.52498  0.66474  Biso   1.000  H 
  H188     1.0000 0.57882  0.44382  0.66030  Biso   1.000  H 
  H189     1.0000 0.55065  0.49630  0.59664  Biso   1.000  H 
  H190     1.0000 0.50255  0.43473  0.62435  Biso   1.000  H 
  C210     1.0000 0.50000  0.34640  0.15360  Biso   1.000  C 
  O120     1.0000 0.50000  0.40471  0.17046  Biso   1.000  O 
  O121     1.0000 0.50000  0.32954  0.09529  Biso   1.000  O 
  C211     1.0000 0.50000  0.29500  0.20500  Biso   1.000  C 
  C212     1.0000 0.50000  0.23249  0.18437  Biso   1.000  C 
  H191     1.0000 0.50000  0.22128  0.13046  Biso   1.000  H 
  O122     1.0000 0.48006  0.11974  0.21153  Biso   1.000  O 
  C213     1.0000 0.50000  0.18442  0.23249  Biso   1.000  C 
  C214     1.0000 0.50000  0.20500  0.29500  Biso   1.000  C 
  C215     1.0000 0.50000  0.26751  0.31558  Biso   1.000  C 
  C216     1.0000 0.50000  0.31563  0.26751  Biso   1.000  C 
  H192     1.0000 0.50000  0.36954  0.27872  Biso   1.000  H 
  H193     1.0000 0.50000  0.27872  0.36949  Biso   1.000  H 
  O123     1.0000 0.50000  0.17046  0.40470  Biso   1.000  O 
  C217     1.0000 0.50000  0.15360  0.34640  Biso   1.000  C 
  O124     1.0000 0.50000  0.09529  0.32954  Biso   1.000  O 
  C218     1.0000 0.53116  0.08074  0.19520  Biso   1.000  C 
  C219     1.0000 0.49829  0.01494  0.18159  Biso   1.000  C 
  H194     1.0000 0.56915  0.08144  0.23386  Biso   1.000  H 
  H195     1.0000 0.55442  0.09730  0.15028  Biso   1.000  H 
  H196     1.0000 0.49631  0.98720  0.22729  Biso   1.000  H 
  C220     1.0000 0.52664  0.97016  0.13322  Biso   1.000  C 
  H197     1.0000 0.44902  0.02684  0.16586  Biso   1.000  H 
  H198     1.0000 0.57185  0.94343  0.14931  Biso   1.000  H 
  H199     1.0000 0.54183  0.99964  0.09078  Biso   1.000  H 
  H200     1.0000 0.48845  0.93425  0.12358  Biso   1.000  H 
  C221     1.0000 0.00000  0.84640  0.84640  Biso   1.000  C 
  O125     1.0000 0.00000  0.90471  0.82954  Biso   1.000  O 
  O126     1.0000 0.00000  0.82954  0.90471  Biso   1.000  O 
  C222     1.0000 0.00000  0.79500  0.79500  Biso   1.000  C 
  C223     1.0000 0.00000  0.73249  0.81563  Biso   1.000  C 
  H201     1.0000 0.00000  0.72128  0.86954  Biso   1.000  H 
  O127     1.0000 0.00747  0.61823  0.78692  Biso   1.000  O 
  C224     1.0000 0.00000  0.68442  0.76752  Biso   1.000  C 
  C225     1.0000 0.00000  0.70500  0.70501  Biso   1.000  C 
  C226     1.0000 0.00000  0.76751  0.68442  Biso   1.000  C 
  C227     1.0000 0.00000  0.81563  0.73249  Biso   1.000  C 
  H202     1.0000 0.00000  0.86954  0.72128  Biso   1.000  H 
  H203     1.0000 0.00000  0.77872  0.63051  Biso   1.000  H 
  O128     1.0000 0.00000  0.67046  0.59530  Biso   1.000  O 
  C228     1.0000 0.00000  0.65360  0.65361  Biso   1.000  C 
  O129     1.0000 0.00000  0.59529  0.67047  Biso   1.000  O 
  C229     1.0000 0.95241  0.59799  0.81739  Biso   1.000  C 
  C230     1.0000 0.97157  0.53102  0.84592  Biso   1.000  C 
  H204     1.0000 0.91111  0.59400  0.78244  Biso   1.000  H 
  H205     1.0000 0.93940  0.63185  0.85565  Biso   1.000  H 
  H206     1.0000 0.97048  0.49067  0.81155  Biso   1.000  H 
  C231     1.0000 0.92380  0.51867  0.89857  Biso   1.000  C 
  H207     1.0000 0.02226  0.53605  0.86533  Biso   1.000  H 
  H208     1.0000 0.88737  0.55654  0.91015  Biso   1.000  H 
  H209     1.0000 0.95499  0.51043  0.94090  Biso   1.000  H 
  H210     1.0000 0.89717  0.47484  0.88520  Biso   1.000  H 
  C232     1.0000 0.00000  0.34640  0.34640  Biso   1.000  C 
  O130     1.0000 0.00000  0.40471  0.32954  Biso   1.000  O 
  O131     1.0000 0.00000  0.32954  0.40471  Biso   1.000  O 
  C233     1.0000 0.00000  0.29500  0.29500  Biso   1.000  C 
  C234     1.0000 0.00000  0.23249  0.31563  Biso   1.000  C 
  H211     1.0000 0.00000  0.22128  0.36954  Biso   1.000  H 
  O132     1.0000 0.00210  0.11809  0.28758  Biso   1.000  O 
  C235     1.0000 0.00000  0.18442  0.26751  Biso   1.000  C 
  C236     1.0000 0.00000  0.20500  0.20500  Biso   1.000  C 
  C237     1.0000 0.00000  0.26751  0.18442  Biso   1.000  C 
  C238     1.0000 0.00000  0.31563  0.23249  Biso   1.000  C 
  H212     1.0000 0.00000  0.36954  0.22128  Biso   1.000  H 
  H213     1.0000 0.00000  0.27872  0.13051  Biso   1.000  H 
  O133     1.0000 0.00000  0.17046  0.09530  Biso   1.000  O 
  C239     1.0000 0.00000  0.15360  0.15360  Biso   1.000  C 
  O134     1.0000 0.00000  0.09529  0.17046  Biso   1.000  O 
  C240     1.0000 0.94113  0.10100  0.31246  Biso   1.000  C 
  C241     1.0000 0.95532  0.05274  0.36978  Biso   1.000  C 
  H214     1.0000 0.91271  0.08323  0.26966  Biso   1.000  H 
  H215     1.0000 0.91462  0.14174  0.33339  Biso   1.000  H 
  H216     1.0000 0.97981  0.01079  0.34736  Biso   1.000  H 
  C242     1.0000 0.89729  0.02674  0.40419  Biso   1.000  C 
  H217     1.0000 0.98889  0.07312  0.40707  Biso   1.000  H 
  H218     1.0000 0.85681  0.05907  0.39410  Biso   1.000  H 
  H219     1.0000 0.90129  0.02592  0.45648  Biso   1.000  H 
  H220     1.0000 0.89004  0.97693  0.38307  Biso   1.000  H 
  C243     1.0000 0.50000  0.84640  0.34640  Biso   1.000  C 
  O135     1.0000 0.50000  0.90471  0.32954  Biso   1.000  O 
  O136     1.0000 0.50000  0.82954  0.40471  Biso   1.000  O 
  C244     1.0000 0.50000  0.79500  0.29500  Biso   1.000  C 
  C245     1.0000 0.50000  0.73249  0.31563  Biso   1.000  C 
  H221     1.0000 0.50000  0.72128  0.36954  Biso   1.000  H 
  O137     1.0000 0.51210  0.61841  0.28694  Biso   1.000  O 
  C246     1.0000 0.50000  0.68442  0.26751  Biso   1.000  C 
  C247     1.0000 0.50000  0.70500  0.20500  Biso   1.000  C 
  C248     1.0000 0.50000  0.76751  0.18442  Biso   1.000  C 
  C249     1.0000 0.50000  0.81563  0.23249  Biso   1.000  C 
  H222     1.0000 0.50000  0.86954  0.22128  Biso   1.000  H 
  H223     1.0000 0.50000  0.77872  0.13051  Biso   1.000  H 
  O138     1.0000 0.50000  0.67046  0.09530  Biso   1.000  O 
  C250     1.0000 0.50000  0.65360  0.15360  Biso   1.000  C 
  O139     1.0000 0.50000  0.59529  0.17046  Biso   1.000  O 
  C251     1.0000 0.45457  0.59884  0.31653  Biso   1.000  C 
  C252     1.0000 0.46969  0.54290  0.36414  Biso   1.000  C 
  H224     1.0000 0.41900  0.58640  0.27859  Biso   1.000  H 
  H225     1.0000 0.43383  0.63644  0.34735  Biso   1.000  H 
  H226     1.0000 0.47820  0.49809  0.33707  Biso   1.000  H 
  C253     1.0000 0.41339  0.53181  0.41136  Biso   1.000  C 
  H227     1.0000 0.51479  0.55297  0.39210  Biso   1.000  H 
  H228     1.0000 0.38130  0.57315  0.41450  Biso   1.000  H 
  H229     1.0000 0.43607  0.52581  0.45944  Biso   1.000  H 
  H230     1.0000 0.38541  0.48859  0.39673  Biso   1.000  H 
  C254     1.0000 0.50000  0.34640  0.84640  Biso   1.000  C 
  O140     1.0000 0.50000  0.40471  0.82954  Biso   1.000  O 
  O141     1.0000 0.50000  0.32954  0.90471  Biso   1.000  O 
  C255     1.0000 0.50000  0.29500  0.79500  Biso   1.000  C 
  C256     1.0000 0.50000  0.23249  0.81563  Biso   1.000  C 
  H231     1.0000 0.50000  0.22128  0.86954  Biso   1.000  H 
  O142     1.0000 0.51501  0.11934  0.78454  Biso   1.000  O 
  C257     1.0000 0.50000  0.18442  0.76752  Biso   1.000  C 
  C258     1.0000 0.50000  0.20500  0.70501  Biso   1.000  C 
  C259     1.0000 0.50000  0.26751  0.68442  Biso   1.000  C 
  C260     1.0000 0.50000  0.31563  0.73249  Biso   1.000  C 
  H232     1.0000 0.50000  0.36954  0.72128  Biso   1.000  H 
  H233     1.0000 0.50000  0.27872  0.63051  Biso   1.000  H 
  O143     1.0000 0.50000  0.17046  0.59530  Biso   1.000  O 
  C261     1.0000 0.50000  0.15360  0.65361  Biso   1.000  C 
  O144     1.0000 0.50000  0.09529  0.67047  Biso   1.000  O 
  C262     1.0000 0.45496  0.09513  0.81011  Biso   1.000  C 
  C263     1.0000 0.47153  0.04024  0.85895  Biso   1.000  C 
  H234     1.0000 0.42790  0.07559  0.76872  Biso   1.000  H 
  H235     1.0000 0.42585  0.13039  0.83659  Biso   1.000  H 
  H236     1.0000 0.48586  0.99797  0.83017  Biso   1.000  H 
  C264     1.0000 0.41843  0.02161  0.90635  Biso   1.000  C 
  H237     1.0000 0.51401  0.05656  0.88675  Biso   1.000  H 
  H238     1.0000 0.38433  0.06012  0.91336  Biso   1.000  H 
  H239     1.0000 0.44335  0.01508  0.95446  Biso   1.000  H 
  H240     1.0000 0.39255  0.97619  0.89099  Biso   1.000  H 
