data_image0
_cell_length_a       20.7004
_cell_length_b       20.7004
_cell_length_c       20.7004
_cell_angle_alpha    90
_cell_angle_beta     90
_cell_angle_gamma    90

_symmetry_space_group_name_H-M    "P 1"
_symmetry_int_tables_number       1

loop_
  _symmetry_equiv_pos_as_xyz
  'x, y, z'

loop_
  _atom_site_label
  _atom_site_occupancy
  _atom_site_fract_x
  _atom_site_fract_y
  _atom_site_fract_z
  _atom_site_thermal_displace_type
  _atom_site_B_iso_or_equiv
  _atom_site_type_symbol
  Zr1      1.0000 0.11989  0.00000  0.00000  Biso   1.000  Zr
  Zr2      1.0000 0.11989  0.50000  0.50000  Biso   1.000  Zr
  Zr3      1.0000 0.61989  0.00000  0.50000  Biso   1.000  Zr
  Zr4      1.0000 0.61989  0.50000  0.00000  Biso   1.000  Zr
  Zr5      1.0000 0.88011  0.00000  0.00000  Biso   1.000  Zr
  Zr6      1.0000 0.88011  0.50000  0.50000  Biso   1.000  Zr
  Zr7      1.0000 0.38011  0.00000  0.50000  Biso   1.000  Zr
  Zr8      1.0000 0.38011  0.50000  0.00000  Biso   1.000  Zr
  Zr9      1.0000 0.00000  0.11989  0.00000  Biso   1.000  Zr
  Zr10     1.0000 0.00000  0.61989  0.50000  Biso   1.000  Zr
  Zr11     1.0000 0.50000  0.11989  0.50000  Biso   1.000  Zr
  Zr12     1.0000 0.50000  0.61989  0.00000  Biso   1.000  Zr
  Zr13     1.0000 0.00000  0.88011  0.00000  Biso   1.000  Zr
  Zr14     1.0000 0.00000  0.38011  0.50000  Biso   1.000  Zr
  Zr15     1.0000 0.50000  0.88011  0.50000  Biso   1.000  Zr
  Zr16     1.0000 0.50000  0.38011  0.00000  Biso   1.000  Zr
  Zr17     1.0000 0.00000  0.00000  0.11989  Biso   1.000  Zr
  Zr18     1.0000 0.00000  0.50000  0.61989  Biso   1.000  Zr
  Zr19     1.0000 0.50000  0.00000  0.61989  Biso   1.000  Zr
  Zr20     1.0000 0.50000  0.50000  0.11989  Biso   1.000  Zr
  Zr21     1.0000 0.00000  0.00000  0.88011  Biso   1.000  Zr
  Zr22     1.0000 0.00000  0.50000  0.38011  Biso   1.000  Zr
  Zr23     1.0000 0.50000  0.00000  0.38011  Biso   1.000  Zr
  Zr24     1.0000 0.50000  0.50000  0.88011  Biso   1.000  Zr
  O1       1.0000 0.05610  0.44390  0.44390  Biso   1.000  O 
  O2       1.0000 0.55610  0.94390  0.44390  Biso   1.000  O 
  O3       1.0000 0.55610  0.44390  0.94390  Biso   1.000  O 
  O4       1.0000 0.44390  0.05610  0.44390  Biso   1.000  O 
  O5       1.0000 0.44390  0.55610  0.94390  Biso   1.000  O 
  O6       1.0000 0.94390  0.94390  0.05610  Biso   1.000  O 
  O7       1.0000 0.94390  0.44390  0.55610  Biso   1.000  O 
  O8       1.0000 0.05610  0.05610  0.05610  Biso   1.000  O 
  O9       1.0000 0.55610  0.55610  0.05610  Biso   1.000  O 
  O10      1.0000 0.94390  0.05610  0.05610  Biso   1.000  O 
  O11      1.0000 0.94390  0.55610  0.55610  Biso   1.000  O 
  O12      1.0000 0.44390  0.05610  0.55610  Biso   1.000  O 
  O13      1.0000 0.44390  0.55610  0.05610  Biso   1.000  O 
  O14      1.0000 0.05610  0.94390  0.05610  Biso   1.000  O 
  O15      1.0000 0.05610  0.44390  0.55610  Biso   1.000  O 
  O16      1.0000 0.55610  0.94390  0.55610  Biso   1.000  O 
  O17      1.0000 0.55610  0.44390  0.05610  Biso   1.000  O 
  O18      1.0000 0.94390  0.94390  0.94390  Biso   1.000  O 
  O19      1.0000 0.94390  0.44390  0.44390  Biso   1.000  O 
  O20      1.0000 0.44390  0.94390  0.44390  Biso   1.000  O 
  O21      1.0000 0.44390  0.44390  0.94390  Biso   1.000  O 
  O22      1.0000 0.05610  0.05610  0.94390  Biso   1.000  O 
  O23      1.0000 0.05610  0.55610  0.44390  Biso   1.000  O 
  O24      1.0000 0.55610  0.05610  0.44390  Biso   1.000  O 
  C1       1.0000 0.15360  0.00000  0.84640  Biso   1.000  C 
  O25      1.0000 0.17046  0.00000  0.90471  Biso   1.000  O 
  O26      1.0000 0.09529  0.00000  0.82954  Biso   1.000  O 
  C2       1.0000 0.20500  0.00000  0.79500  Biso   1.000  C 
  C3       1.0000 0.18437  0.00000  0.73249  Biso   1.000  C 
  H1       1.0000 0.13046  0.00000  0.72128  Biso   1.000  H 
  O27      1.0000 0.21588  0.98176  0.61996  Biso   1.000  O 
  C4       1.0000 0.23249  0.00000  0.68442  Biso   1.000  C 
  C5       1.0000 0.29500  0.00000  0.70500  Biso   1.000  C 
  C6       1.0000 0.31558  0.00000  0.76751  Biso   1.000  C 
  C7       1.0000 0.26751  0.00000  0.81563  Biso   1.000  C 
  H2       1.0000 0.27872  0.00000  0.86954  Biso   1.000  H 
  H3       1.0000 0.36949  0.00000  0.77872  Biso   1.000  H 
  O28      1.0000 0.40470  0.00000  0.67046  Biso   1.000  O 
  C8       1.0000 0.34640  0.00000  0.65360  Biso   1.000  C 
  O29      1.0000 0.32954  0.00000  0.59529  Biso   1.000  O 
  C9       1.0000 0.20781  0.91505  0.62450  Biso   1.000  C 
  C10      1.0000 0.27340  0.87649  0.63487  Biso   1.000  C 
  H4       1.0000 0.16912  0.90253  0.66035  Biso   1.000  H 
  H5       1.0000 0.18459  0.90396  0.57959  Biso   1.000  H 
  H6       1.0000 0.26967  0.82997  0.61105  Biso   1.000  H 
  C11      1.0000 0.28087  0.85915  0.70752  Biso   1.000  C 
  H7       1.0000 0.31565  0.89661  0.61241  Biso   1.000  H 
  H8       1.0000 0.25363  0.89242  0.73672  Biso   1.000  H 
  H9       1.0000 0.25782  0.81147  0.71372  Biso   1.000  H 
  C12      1.0000 0.34980  0.85324  0.73121  Biso   1.000  C 
  H10      1.0000 0.37791  0.89010  0.70693  Biso   1.000  H 
  C13      1.0000 0.35298  0.86529  0.80450  Biso   1.000  C 
  H11      1.0000 0.36999  0.80661  0.71788  Biso   1.000  H 
  H12      1.0000 0.30923  0.88707  0.82716  Biso   1.000  H 
  H13      1.0000 0.39568  0.89767  0.81357  Biso   1.000  H 
  H14      1.0000 0.36301  0.81929  0.82919  Biso   1.000  H 
  C14      1.0000 0.15360  0.50000  0.34640  Biso   1.000  C 
  O30      1.0000 0.17046  0.50000  0.40471  Biso   1.000  O 
  O31      1.0000 0.09529  0.50000  0.32954  Biso   1.000  O 
  C15      1.0000 0.20500  0.50000  0.29500  Biso   1.000  C 
  C16      1.0000 0.18437  0.50000  0.23249  Biso   1.000  C 
  H15      1.0000 0.13046  0.50000  0.22128  Biso   1.000  H 
  O32      1.0000 0.21963  0.48142  0.11858  Biso   1.000  O 
  C17      1.0000 0.23249  0.50000  0.18442  Biso   1.000  C 
  C18      1.0000 0.29500  0.50000  0.20500  Biso   1.000  C 
  C19      1.0000 0.31558  0.50000  0.26751  Biso   1.000  C 
  C20      1.0000 0.26751  0.50000  0.31563  Biso   1.000  C 
  H16      1.0000 0.27872  0.50000  0.36954  Biso   1.000  H 
  H17      1.0000 0.36949  0.50000  0.27872  Biso   1.000  H 
  O33      1.0000 0.40470  0.50000  0.17046  Biso   1.000  O 
  C21      1.0000 0.34640  0.50000  0.15360  Biso   1.000  C 
  O34      1.0000 0.32954  0.50000  0.09529  Biso   1.000  O 
  C22      1.0000 0.18293  0.52668  0.08629  Biso   1.000  C 
  C23      1.0000 0.11022  0.51754  0.09905  Biso   1.000  C 
  H18      1.0000 0.19708  0.57690  0.09998  Biso   1.000  H 
  H19      1.0000 0.19117  0.52113  0.03347  Biso   1.000  H 
  H20      1.0000 0.09841  0.55686  0.13331  Biso   1.000  H 
  C24      1.0000 0.07317  0.45645  0.12352  Biso   1.000  C 
  H21      1.0000 0.08744  0.53108  0.05296  Biso   1.000  H 
  H22      1.0000 0.05940  0.45356  0.17508  Biso   1.000  H 
  H23      1.0000 0.02881  0.45724  0.09570  Biso   1.000  H 
  C25      1.0000 0.10367  0.39424  0.10205  Biso   1.000  C 
  H24      1.0000 0.13488  0.40618  0.06069  Biso   1.000  H 
  C26      1.0000 0.14647  0.36532  0.15213  Biso   1.000  C 
  H25      1.0000 0.06790  0.35887  0.08708  Biso   1.000  H 
  H26      1.0000 0.11929  0.33982  0.18767  Biso   1.000  H 
  H27      1.0000 0.17676  0.39930  0.17753  Biso   1.000  H 
  H28      1.0000 0.17778  0.33091  0.12579  Biso   1.000  H 
  C27      1.0000 0.65360  0.00000  0.34640  Biso   1.000  C 
  O35      1.0000 0.67046  0.00000  0.40471  Biso   1.000  O 
  O36      1.0000 0.59529  0.00000  0.32954  Biso   1.000  O 
  C28      1.0000 0.70500  0.00000  0.29500  Biso   1.000  C 
  C29      1.0000 0.68437  0.00000  0.23249  Biso   1.000  C 
  H29      1.0000 0.63046  0.00000  0.22128  Biso   1.000  H 
  O37      1.0000 0.71237  0.98907  0.11895  Biso   1.000  O 
  C30      1.0000 0.73248  0.00000  0.18442  Biso   1.000  C 
  C31      1.0000 0.79499  0.00000  0.20500  Biso   1.000  C 
  C32      1.0000 0.81558  0.00000  0.26751  Biso   1.000  C 
  C33      1.0000 0.76751  0.00000  0.31563  Biso   1.000  C 
  H30      1.0000 0.77872  0.00000  0.36954  Biso   1.000  H 
  H31      1.0000 0.86949  0.00000  0.27872  Biso   1.000  H 
  O38      1.0000 0.90470  0.00000  0.17046  Biso   1.000  O 
  C34      1.0000 0.84639  0.00000  0.15360  Biso   1.000  C 
  O39      1.0000 0.82953  0.00000  0.09529  Biso   1.000  O 
  C35      1.0000 0.68390  0.92676  0.11915  Biso   1.000  C 
  C36      1.0000 0.73468  0.87391  0.12753  Biso   1.000  C 
  H32      1.0000 0.64587  0.91949  0.15610  Biso   1.000  H 
  H33      1.0000 0.65995  0.92117  0.07160  Biso   1.000  H 
  H34      1.0000 0.70883  0.83104  0.10951  Biso   1.000  H 
  C37      1.0000 0.75028  0.85590  0.19665  Biso   1.000  C 
  H35      1.0000 0.77684  0.88406  0.09776  Biso   1.000  H 
  H36      1.0000 0.72407  0.88624  0.23205  Biso   1.000  H 
  H37      1.0000 0.73142  0.80637  0.20376  Biso   1.000  H 
  C38      1.0000 0.82221  0.85047  0.20789  Biso   1.000  C 
  H38      1.0000 0.85069  0.88562  0.18070  Biso   1.000  H 
  C39      1.0000 0.83920  0.85570  0.27897  Biso   1.000  C 
  H39      1.0000 0.83998  0.80367  0.19251  Biso   1.000  H 
  H40      1.0000 0.80295  0.88252  0.30703  Biso   1.000  H 
  H41      1.0000 0.88636  0.88175  0.28210  Biso   1.000  H 
  H42      1.0000 0.84528  0.80825  0.30167  Biso   1.000  H 
  C40      1.0000 0.65360  0.50000  0.84640  Biso   1.000  C 
  O40      1.0000 0.67046  0.50000  0.90471  Biso   1.000  O 
  O41      1.0000 0.59529  0.50000  0.82954  Biso   1.000  O 
  C41      1.0000 0.70500  0.50000  0.79500  Biso   1.000  C 
  C42      1.0000 0.68437  0.50000  0.73249  Biso   1.000  C 
  H43      1.0000 0.63046  0.50000  0.72128  Biso   1.000  H 
  O42      1.0000 0.71919  0.46242  0.62453  Biso   1.000  O 
  C43      1.0000 0.73248  0.50000  0.68442  Biso   1.000  C 
  C44      1.0000 0.79499  0.50000  0.70500  Biso   1.000  C 
  C45      1.0000 0.81558  0.50000  0.76751  Biso   1.000  C 
  C46      1.0000 0.76751  0.50000  0.81563  Biso   1.000  C 
  H44      1.0000 0.77872  0.50000  0.86954  Biso   1.000  H 
  H45      1.0000 0.86949  0.50000  0.77872  Biso   1.000  H 
  O43      1.0000 0.90470  0.50000  0.67046  Biso   1.000  O 
  C47      1.0000 0.84639  0.50000  0.65360  Biso   1.000  C 
  O44      1.0000 0.82953  0.50000  0.59529  Biso   1.000  O 
  C48      1.0000 0.72027  0.39317  0.63921  Biso   1.000  C 
  C49      1.0000 0.78709  0.35867  0.65219  Biso   1.000  C 
  H46      1.0000 0.68675  0.38243  0.67993  Biso   1.000  H 
  H47      1.0000 0.69850  0.37063  0.59805  Biso   1.000  H 
  H48      1.0000 0.79793  0.31719  0.62247  Biso   1.000  H 
  C50      1.0000 0.79102  0.33828  0.72548  Biso   1.000  C 
  H49      1.0000 0.82589  0.39044  0.64169  Biso   1.000  H 
  H50      1.0000 0.75901  0.37086  0.75381  Biso   1.000  H 
  H51      1.0000 0.77867  0.28805  0.73524  Biso   1.000  H 
  C51      1.0000 0.85791  0.33529  0.75551  Biso   1.000  C 
  H52      1.0000 0.88545  0.37801  0.73872  Biso   1.000  H 
  C52      1.0000 0.85927  0.33394  0.83085  Biso   1.000  C 
  H53      1.0000 0.88194  0.29045  0.73784  Biso   1.000  H 
  H54      1.0000 0.82073  0.36521  0.85022  Biso   1.000  H 
  H55      1.0000 0.90455  0.35451  0.84827  Biso   1.000  H 
  H56      1.0000 0.85435  0.28437  0.85079  Biso   1.000  H 
  C53      1.0000 0.84640  0.00000  0.84640  Biso   1.000  C 
  O45      1.0000 0.82954  0.00000  0.90471  Biso   1.000  O 
  O46      1.0000 0.90471  0.00000  0.82954  Biso   1.000  O 
  C54      1.0000 0.79500  0.00000  0.79500  Biso   1.000  C 
  C55      1.0000 0.81563  0.00000  0.73249  Biso   1.000  C 
  H57      1.0000 0.86954  0.00000  0.72128  Biso   1.000  H 
  O47      1.0000 0.78853  0.00936  0.61865  Biso   1.000  O 
  C56      1.0000 0.76752  0.00000  0.68442  Biso   1.000  C 
  C57      1.0000 0.70501  0.00000  0.70500  Biso   1.000  C 
  C58      1.0000 0.68442  0.00000  0.76751  Biso   1.000  C 
  C59      1.0000 0.73249  0.00000  0.81563  Biso   1.000  C 
  H58      1.0000 0.72128  0.00000  0.86954  Biso   1.000  H 
  H59      1.0000 0.63051  0.00000  0.77872  Biso   1.000  H 
  O48      1.0000 0.59530  0.00000  0.67046  Biso   1.000  O 
  C60      1.0000 0.65361  0.00000  0.65360  Biso   1.000  C 
  O49      1.0000 0.67047  0.00000  0.59529  Biso   1.000  O 
  C61      1.0000 0.81899  0.95250  0.59461  Biso   1.000  C 
  C62      1.0000 0.88965  0.96870  0.57588  Biso   1.000  C 
  H60      1.0000 0.81284  0.90620  0.62243  Biso   1.000  H 
  H61      1.0000 0.79420  0.94575  0.55066  Biso   1.000  H 
  H62      1.0000 0.92221  0.95037  0.61505  Biso   1.000  H 
  C63      1.0000 0.90793  0.94114  0.50978  Biso   1.000  C 
  H63      1.0000 0.89452  0.02131  0.57468  Biso   1.000  H 
  H64      1.0000 0.88192  0.89554  0.50427  Biso   1.000  H 
  H65      1.0000 0.89133  0.97482  0.47166  Biso   1.000  H 
  C64      1.0000 0.97974  0.92749  0.50111  Biso   1.000  C 
  H66      1.0000 0.98887  0.87491  0.51035  Biso   1.000  H 
  C65      1.0000 0.99464  0.93746  0.42784  Biso   1.000  C 
  H67      1.0000 0.01234  0.95755  0.53381  Biso   1.000  H 
  H68      1.0000 0.04152  0.91504  0.41227  Biso   1.000  H 
  H69      1.0000 0.99775  0.98908  0.41955  Biso   1.000  H 
  H70      1.0000 0.95395  0.91730  0.39846  Biso   1.000  H 
  C66      1.0000 0.84640  0.50000  0.34640  Biso   1.000  C 
  O50      1.0000 0.82954  0.50000  0.40471  Biso   1.000  O 
  O51      1.0000 0.90471  0.50000  0.32954  Biso   1.000  O 
  C67      1.0000 0.79500  0.50000  0.29500  Biso   1.000  C 
  C68      1.0000 0.81563  0.50000  0.23249  Biso   1.000  C 
  H71      1.0000 0.86954  0.50000  0.22128  Biso   1.000  H 
  O52      1.0000 0.77688  0.46453  0.12576  Biso   1.000  O 
  C69      1.0000 0.76752  0.50000  0.18442  Biso   1.000  C 
  C70      1.0000 0.70501  0.50000  0.20500  Biso   1.000  C 
  C71      1.0000 0.68442  0.50000  0.26751  Biso   1.000  C 
  C72      1.0000 0.73249  0.50000  0.31563  Biso   1.000  C 
  H72      1.0000 0.72128  0.50000  0.36954  Biso   1.000  H 
  H73      1.0000 0.63051  0.50000  0.27872  Biso   1.000  H 
  O53      1.0000 0.59530  0.50000  0.17046  Biso   1.000  O 
  C73      1.0000 0.65361  0.50000  0.15360  Biso   1.000  C 
  O54      1.0000 0.67047  0.50000  0.09529  Biso   1.000  O 
  C74      1.0000 0.77341  0.39658  0.14103  Biso   1.000  C 
  C75      1.0000 0.84055  0.36294  0.13981  Biso   1.000  C 
  H74      1.0000 0.75242  0.38542  0.18936  Biso   1.000  H 
  H75      1.0000 0.74184  0.37362  0.10458  Biso   1.000  H 
  H76      1.0000 0.84180  0.32073  0.10708  Biso   1.000  H 
  C76      1.0000 0.89479  0.40619  0.11717  Biso   1.000  C 
  H77      1.0000 0.85201  0.34388  0.18960  Biso   1.000  H 
  H78      1.0000 0.90405  0.44539  0.14890  Biso   1.000  H 
  H79      1.0000 0.93881  0.37597  0.12310  Biso   1.000  H 
  C77      1.0000 0.89304  0.43047  0.04796  Biso   1.000  C 
  H80      1.0000 0.88540  0.38938  0.01482  Biso   1.000  H 
  C78      1.0000 0.84789  0.48285  0.02359  Biso   1.000  C 
  H81      1.0000 0.94209  0.45014  0.04029  Biso   1.000  H 
  H82      1.0000 0.86157  0.49305  0.97377  Biso   1.000  H 
  H83      1.0000 0.84946  0.52528  0.05332  Biso   1.000  H 
  H84      1.0000 0.79851  0.46510  0.01937  Biso   1.000  H 
  C79      1.0000 0.34640  0.00000  0.34640  Biso   1.000  C 
  O55      1.0000 0.32954  0.00000  0.40471  Biso   1.000  O 
  O56      1.0000 0.40471  0.00000  0.32954  Biso   1.000  O 
  C80      1.0000 0.29500  0.00000  0.29500  Biso   1.000  C 
  C81      1.0000 0.31563  0.00000  0.23249  Biso   1.000  C 
  H85      1.0000 0.36954  0.00000  0.22128  Biso   1.000  H 
  O57      1.0000 0.27820  0.96785  0.12229  Biso   1.000  O 
  C82      1.0000 0.26751  0.00000  0.18442  Biso   1.000  C 
  C83      1.0000 0.20500  0.00000  0.20500  Biso   1.000  C 
  C84      1.0000 0.18442  0.00000  0.26751  Biso   1.000  C 
  C85      1.0000 0.23249  0.00000  0.31563  Biso   1.000  C 
  H86      1.0000 0.22128  0.00000  0.36954  Biso   1.000  H 
  H87      1.0000 0.13051  0.00000  0.27872  Biso   1.000  H 
  O58      1.0000 0.09530  0.00000  0.17046  Biso   1.000  O 
  C86      1.0000 0.15360  0.00000  0.15360  Biso   1.000  C 
  O59      1.0000 0.17046  0.00000  0.09529  Biso   1.000  O 
  C87      1.0000 0.33656  0.97162  0.08987  Biso   1.000  C 
  C88      1.0000 0.33751  0.02837  0.04287  Biso   1.000  C 
  H88      1.0000 0.37808  0.96916  0.12229  Biso   1.000  H 
  H89      1.0000 0.33838  0.92809  0.05926  Biso   1.000  H 
  H90      1.0000 0.29032  0.02966  0.01718  Biso   1.000  H 
  C89      1.0000 0.35390  0.09315  0.07401  Biso   1.000  C 
  H91      1.0000 0.37562  0.01742  0.00660  Biso   1.000  H 
  H92      1.0000 0.40014  0.08343  0.09585  Biso   1.000  H 
  H93      1.0000 0.36842  0.12549  0.03519  Biso   1.000  H 
  C90      1.0000 0.29346  0.12358  0.11455  Biso   1.000  C 
  H94      1.0000 0.28632  0.10368  0.15993  Biso   1.000  H 
  C91      1.0000 0.30152  0.19556  0.13297  Biso   1.000  C 
  H95      1.0000 0.24616  0.11553  0.09139  Biso   1.000  H 
  H96      1.0000 0.34880  0.21424  0.11796  Biso   1.000  H 
  H97      1.0000 0.29800  0.19948  0.18380  Biso   1.000  H 
  H98      1.0000 0.26400  0.22811  0.11402  Biso   1.000  H 
  C92      1.0000 0.34640  0.50000  0.84640  Biso   1.000  C 
  O60      1.0000 0.32954  0.50000  0.90471  Biso   1.000  O 
  O61      1.0000 0.40471  0.50000  0.82954  Biso   1.000  O 
  C93      1.0000 0.29500  0.50000  0.79500  Biso   1.000  C 
  C94      1.0000 0.31563  0.50000  0.73249  Biso   1.000  C 
  H99      1.0000 0.36954  0.50000  0.72128  Biso   1.000  H 
  O62      1.0000 0.28982  0.50133  0.61858  Biso   1.000  O 
  C95      1.0000 0.26751  0.50000  0.68442  Biso   1.000  C 
  C96      1.0000 0.20500  0.50000  0.70500  Biso   1.000  C 
  C97      1.0000 0.18442  0.50000  0.76751  Biso   1.000  C 
  C98      1.0000 0.23249  0.50000  0.81563  Biso   1.000  C 
  H100     1.0000 0.22128  0.50000  0.86954  Biso   1.000  H 
  H101     1.0000 0.13051  0.50000  0.77872  Biso   1.000  H 
  O63      1.0000 0.09530  0.50000  0.67046  Biso   1.000  O 
  C99      1.0000 0.15360  0.50000  0.65360  Biso   1.000  C 
  O64      1.0000 0.17046  0.50000  0.59529  Biso   1.000  O 
  C100     1.0000 0.30776  0.44119  0.59354  Biso   1.000  C 
  C101     1.0000 0.37376  0.41261  0.62043  Biso   1.000  C 
  H102     1.0000 0.26635  0.40920  0.60232  Biso   1.000  H 
  H103     1.0000 0.31054  0.45189  0.54073  Biso   1.000  H 
  H104     1.0000 0.35224  0.38068  0.65890  Biso   1.000  H 
  C102     1.0000 0.41910  0.37857  0.57322  Biso   1.000  C 
  H105     1.0000 0.40367  0.44692  0.64650  Biso   1.000  H 
  H106     1.0000 0.46936  0.38398  0.58935  Biso   1.000  H 
  H107     1.0000 0.40919  0.32906  0.57449  Biso   1.000  H 
  C103     1.0000 0.42287  0.40888  0.50254  Biso   1.000  C 
  H108     1.0000 0.42688  0.46198  0.50752  Biso   1.000  H 
  C104     1.0000 0.48435  0.38233  0.46464  Biso   1.000  C 
  H109     1.0000 0.37598  0.39871  0.47751  Biso   1.000  H 
  H110     1.0000 0.48288  0.32781  0.46752  Biso   1.000  H 
  H111     1.0000 0.53101  0.40238  0.48230  Biso   1.000  H 
  H112     1.0000 0.48251  0.39883  0.41341  Biso   1.000  H 
  C105     1.0000 0.84640  0.15360  0.00000  Biso   1.000  C 
  O65      1.0000 0.90471  0.17046  0.00000  Biso   1.000  O 
  O66      1.0000 0.82954  0.09529  0.00000  Biso   1.000  O 
  C106     1.0000 0.79500  0.20500  0.00000  Biso   1.000  C 
  C107     1.0000 0.73249  0.18437  0.00000  Biso   1.000  C 
  H113     1.0000 0.72128  0.13046  0.00000  Biso   1.000  H 
  O67      1.0000 0.62891  0.21746  0.04126  Biso   1.000  O 
  C108     1.0000 0.68442  0.23249  0.00000  Biso   1.000  C 
  C109     1.0000 0.70500  0.29500  0.00000  Biso   1.000  C 
  C110     1.0000 0.76751  0.31558  0.00000  Biso   1.000  C 
  C111     1.0000 0.81563  0.26751  0.00000  Biso   1.000  C 
  H114     1.0000 0.86954  0.27872  0.00000  Biso   1.000  H 
  H115     1.0000 0.77872  0.36949  0.00000  Biso   1.000  H 
  O68      1.0000 0.67046  0.40470  0.00000  Biso   1.000  O 
  C112     1.0000 0.65360  0.34640  0.00000  Biso   1.000  C 
  O69      1.0000 0.59529  0.32954  0.00000  Biso   1.000  O 
  C113     1.0000 0.59044  0.17234  0.01192  Biso   1.000  C 
  C114     1.0000 0.56074  0.20518  0.95616  Biso   1.000  C 
  H116     1.0000 0.61643  0.12737  0.99821  Biso   1.000  H 
  H117     1.0000 0.55248  0.15894  0.04675  Biso   1.000  H 
  H118     1.0000 0.52445  0.16783  0.94420  Biso   1.000  H 
  C115     1.0000 0.61248  0.21777  0.90011  Biso   1.000  C 
  H119     1.0000 0.53291  0.24714  0.97281  Biso   1.000  H 
  H120     1.0000 0.65369  0.18680  0.90514  Biso   1.000  H 
  H121     1.0000 0.59037  0.19747  0.86307  Biso   1.000  H 
  C116     1.0000 0.63188  0.28220  0.86866  Biso   1.000  C 
  H122     1.0000 0.60886  0.32328  0.89057  Biso   1.000  H 
  C117     1.0000 0.70361  0.29854  0.86369  Biso   1.000  C 
  H123     1.0000 0.61614  0.28081  0.81756  Biso   1.000  H 
  H124     1.0000 0.73475  0.26273  0.88609  Biso   1.000  H 
  H125     1.0000 0.71432  0.34796  0.88151  Biso   1.000  H 
  H126     1.0000 0.71482  0.29773  0.81282  Biso   1.000  H 
  C118     1.0000 0.84640  0.65360  0.50000  Biso   1.000  C 
  O70      1.0000 0.90471  0.67046  0.50000  Biso   1.000  O 
  O71      1.0000 0.82954  0.59529  0.50000  Biso   1.000  O 
  C119     1.0000 0.79500  0.70500  0.50000  Biso   1.000  C 
  C120     1.0000 0.73249  0.68437  0.50000  Biso   1.000  C 
  H127     1.0000 0.72128  0.63046  0.50000  Biso   1.000  H 
  O72      1.0000 0.62952  0.72063  0.54386  Biso   1.000  O 
  C121     1.0000 0.68442  0.73248  0.50000  Biso   1.000  C 
  C122     1.0000 0.70500  0.79499  0.50000  Biso   1.000  C 
  C123     1.0000 0.76751  0.81558  0.50000  Biso   1.000  C 
  C124     1.0000 0.81563  0.76751  0.50000  Biso   1.000  C 
  H128     1.0000 0.86954  0.77872  0.50000  Biso   1.000  H 
  H129     1.0000 0.77872  0.86949  0.50000  Biso   1.000  H 
  O73      1.0000 0.67046  0.90470  0.50000  Biso   1.000  O 
  C125     1.0000 0.65360  0.84639  0.50000  Biso   1.000  C 
  O74      1.0000 0.59529  0.82953  0.50000  Biso   1.000  O 
  C126     1.0000 0.58764  0.67996  0.51358  Biso   1.000  C 
  C127     1.0000 0.56861  0.70813  0.45043  Biso   1.000  C 
  H130     1.0000 0.60723  0.63036  0.51235  Biso   1.000  H 
  H131     1.0000 0.54316  0.67851  0.54388  Biso   1.000  H 
  H132     1.0000 0.53821  0.66758  0.43748  Biso   1.000  H 
  C128     1.0000 0.62064  0.72156  0.39379  Biso   1.000  C 
  H133     1.0000 0.53586  0.74719  0.46071  Biso   1.000  H 
  H134     1.0000 0.66047  0.68674  0.39887  Biso   1.000  H 
  H135     1.0000 0.59951  0.70606  0.35177  Biso   1.000  H 
  C129     1.0000 0.64556  0.78630  0.36632  Biso   1.000  C 
  H136     1.0000 0.62696  0.82760  0.39198  Biso   1.000  H 
  C130     1.0000 0.71973  0.79153  0.35657  Biso   1.000  C 
  H137     1.0000 0.62673  0.79144  0.31561  Biso   1.000  H 
  H138     1.0000 0.74681  0.74990  0.37616  Biso   1.000  H 
  H139     1.0000 0.73573  0.83761  0.38054  Biso   1.000  H 
  H140     1.0000 0.73081  0.79490  0.30543  Biso   1.000  H 
  C131     1.0000 0.34640  0.15360  0.50000  Biso   1.000  C 
  O75      1.0000 0.40471  0.17046  0.50000  Biso   1.000  O 
  O76      1.0000 0.32954  0.09529  0.50000  Biso   1.000  O 
  C132     1.0000 0.29500  0.20500  0.50000  Biso   1.000  C 
  C133     1.0000 0.23249  0.18437  0.50000  Biso   1.000  C 
  H141     1.0000 0.22128  0.13046  0.50000  Biso   1.000  H 
  O77      1.0000 0.12384  0.21707  0.47048  Biso   1.000  O 
  C134     1.0000 0.18442  0.23249  0.50000  Biso   1.000  C 
  C135     1.0000 0.20500  0.29500  0.50000  Biso   1.000  C 
  C136     1.0000 0.26751  0.31558  0.50000  Biso   1.000  C 
  C137     1.0000 0.31563  0.26751  0.50000  Biso   1.000  C 
  H142     1.0000 0.36954  0.27872  0.50000  Biso   1.000  H 
  H143     1.0000 0.27872  0.36949  0.50000  Biso   1.000  H 
  O78      1.0000 0.17046  0.40470  0.50000  Biso   1.000  O 
  C138     1.0000 0.15360  0.34640  0.50000  Biso   1.000  C 
  O79      1.0000 0.09529  0.32954  0.50000  Biso   1.000  O 
  C139     1.0000 0.13558  0.21327  0.40371  Biso   1.000  C 
  C140     1.0000 0.15053  0.27771  0.36544  Biso   1.000  C 
  H144     1.0000 0.17357  0.17719  0.39337  Biso   1.000  H 
  H145     1.0000 0.09086  0.19205  0.38839  Biso   1.000  H 
  H146     1.0000 0.12218  0.28155  0.31986  Biso   1.000  H 
  C141     1.0000 0.22266  0.27750  0.34557  Biso   1.000  C 
  H147     1.0000 0.13711  0.32158  0.39122  Biso   1.000  H 
  H148     1.0000 0.25300  0.25024  0.37956  Biso   1.000  H 
  H149     1.0000 0.22385  0.25387  0.29853  Biso   1.000  H 
  C142     1.0000 0.25094  0.34393  0.33681  Biso   1.000  C 
  H150     1.0000 0.24594  0.37069  0.38261  Biso   1.000  H 
  C143     1.0000 0.32270  0.34606  0.31804  Biso   1.000  C 
  H151     1.0000 0.22118  0.36855  0.29975  Biso   1.000  H 
  H152     1.0000 0.35041  0.31276  0.34908  Biso   1.000  H 
  H153     1.0000 0.34134  0.39507  0.32792  Biso   1.000  H 
  H154     1.0000 0.33038  0.33460  0.26650  Biso   1.000  H 
  C144     1.0000 0.34640  0.65360  0.00000  Biso   1.000  C 
  O80      1.0000 0.40471  0.67046  0.00000  Biso   1.000  O 
  O81      1.0000 0.32954  0.59529  0.00000  Biso   1.000  O 
  C145     1.0000 0.29500  0.70500  0.00000  Biso   1.000  C 
  C146     1.0000 0.23249  0.68437  0.00000  Biso   1.000  C 
  H155     1.0000 0.22128  0.63046  0.00000  Biso   1.000  H 
  O82      1.0000 0.12279  0.71423  0.02750  Biso   1.000  O 
  C147     1.0000 0.18442  0.73248  0.00000  Biso   1.000  C 
  C148     1.0000 0.20500  0.79499  0.00000  Biso   1.000  C 
  C149     1.0000 0.26751  0.81558  0.00000  Biso   1.000  C 
  C150     1.0000 0.31563  0.76751  0.00000  Biso   1.000  C 
  H156     1.0000 0.36954  0.77872  0.00000  Biso   1.000  H 
  H157     1.0000 0.27872  0.86949  0.00000  Biso   1.000  H 
  O83      1.0000 0.17046  0.90470  0.00000  Biso   1.000  O 
  C151     1.0000 0.15360  0.84639  0.00000  Biso   1.000  C 
  O84      1.0000 0.09529  0.82953  0.00000  Biso   1.000  O 
  C152     1.0000 0.09471  0.66342  0.99126  Biso   1.000  C 
  C153     1.0000 0.08832  0.68253  0.92121  Biso   1.000  C 
  H158     1.0000 0.11968  0.61614  0.99353  Biso   1.000  H 
  H159     1.0000 0.04571  0.65858  0.01023  Biso   1.000  H 
  H160     1.0000 0.05102  0.65216  0.90441  Biso   1.000  H 
  C154     1.0000 0.14303  0.68323  0.86996  Biso   1.000  C 
  H161     1.0000 0.07117  0.73010  0.92864  Biso   1.000  H 
  H162     1.0000 0.18165  0.65637  0.89291  Biso   1.000  H 
  H163     1.0000 0.12828  0.65904  0.82649  Biso   1.000  H 
  C155     1.0000 0.16106  0.75204  0.84457  Biso   1.000  C 
  H164     1.0000 0.13958  0.78815  0.87730  Biso   1.000  H 
  C156     1.0000 0.23323  0.76438  0.84991  Biso   1.000  C 
  H165     1.0000 0.14352  0.76434  0.79515  Biso   1.000  H 
  H166     1.0000 0.23345  0.81595  0.86555  Biso   1.000  H 
  H167     1.0000 0.26486  0.76243  0.80777  Biso   1.000  H 
  H168     1.0000 0.25385  0.73666  0.89019  Biso   1.000  H 
  C157     1.0000 0.84640  0.84640  0.00000  Biso   1.000  C 
  O85      1.0000 0.90471  0.82954  0.00000  Biso   1.000  O 
  O86      1.0000 0.82954  0.90471  0.00000  Biso   1.000  O 
  C158     1.0000 0.79500  0.79500  0.00000  Biso   1.000  C 
  C159     1.0000 0.73249  0.81563  0.00000  Biso   1.000  C 
  H169     1.0000 0.72128  0.86954  0.00000  Biso   1.000  H 
  O87      1.0000 0.61791  0.79108  0.99465  Biso   1.000  O 
  C160     1.0000 0.68442  0.76752  0.00000  Biso   1.000  C 
  C161     1.0000 0.70500  0.70501  0.00000  Biso   1.000  C 
  C162     1.0000 0.76751  0.68442  0.00000  Biso   1.000  C 
  C163     1.0000 0.81563  0.73249  0.00000  Biso   1.000  C 
  H170     1.0000 0.86954  0.72128  0.00000  Biso   1.000  H 
  H171     1.0000 0.77872  0.63051  0.00000  Biso   1.000  H 
  O88      1.0000 0.67046  0.59530  0.00000  Biso   1.000  O 
  C164     1.0000 0.65360  0.65361  0.00000  Biso   1.000  C 
  O89      1.0000 0.59529  0.67047  0.00000  Biso   1.000  O 
  C165     1.0000 0.61264  0.81360  0.92818  Biso   1.000  C 
  C166     1.0000 0.56708  0.87289  0.90852  Biso   1.000  C 
  H172     1.0000 0.65917  0.83197  0.90758  Biso   1.000  H 
  H173     1.0000 0.59842  0.77085  0.89897  Biso   1.000  H 
  H174     1.0000 0.51543  0.86193  0.91116  Biso   1.000  H 
  C167     1.0000 0.57145  0.93808  0.94655  Biso   1.000  C 
  H175     1.0000 0.57883  0.88608  0.85717  Biso   1.000  H 
  H176     1.0000 0.62230  0.94178  0.96270  Biso   1.000  H 
  H177     1.0000 0.56167  0.97860  0.91349  Biso   1.000  H 
  C168     1.0000 0.52566  0.95147  0.00624  Biso   1.000  C 
  H178     1.0000 0.48100  0.97669  0.98981  Biso   1.000  H 
  C169     1.0000 0.50234  0.89529  0.05183  Biso   1.000  C 
  H179     1.0000 0.55219  0.98524  0.03823  Biso   1.000  H 
  H180     1.0000 0.47118  0.91635  0.09047  Biso   1.000  H 
  H181     1.0000 0.54384  0.87025  0.07475  Biso   1.000  H 
  H182     1.0000 0.47366  0.85963  0.02477  Biso   1.000  H 
  C170     1.0000 0.84640  0.34640  0.50000  Biso   1.000  C 
  O90      1.0000 0.90471  0.32954  0.50000  Biso   1.000  O 
  O91      1.0000 0.82954  0.40471  0.50000  Biso   1.000  O 
  C171     1.0000 0.79500  0.29500  0.50000  Biso   1.000  C 
  C172     1.0000 0.73249  0.31563  0.50000  Biso   1.000  C 
  H183     1.0000 0.72128  0.36954  0.50000  Biso   1.000  H 
  O92      1.0000 0.62115  0.28674  0.51308  Biso   1.000  O 
  C173     1.0000 0.68442  0.26751  0.50000  Biso   1.000  C 
  C174     1.0000 0.70500  0.20500  0.50000  Biso   1.000  C 
  C175     1.0000 0.76751  0.18442  0.50000  Biso   1.000  C 
  C176     1.0000 0.81563  0.23249  0.50000  Biso   1.000  C 
  H184     1.0000 0.86954  0.22128  0.50000  Biso   1.000  H 
  H185     1.0000 0.77872  0.13051  0.50000  Biso   1.000  H 
  O93      1.0000 0.67046  0.09530  0.50000  Biso   1.000  O 
  C177     1.0000 0.65360  0.15360  0.50000  Biso   1.000  C 
  O94      1.0000 0.59529  0.17046  0.50000  Biso   1.000  O 
  C178     1.0000 0.61110  0.28461  0.57979  Biso   1.000  C 
  C179     1.0000 0.63466  0.22849  0.62583  Biso   1.000  C 
  H186     1.0000 0.60438  0.33178  0.60485  Biso   1.000  H 
  H187     1.0000 0.56378  0.26572  0.56865  Biso   1.000  H 
  H188     1.0000 0.61862  0.18005  0.61243  Biso   1.000  H 
  C180     1.0000 0.70399  0.22971  0.64405  Biso   1.000  C 
  H189     1.0000 0.61090  0.23955  0.67150  Biso   1.000  H 
  H190     1.0000 0.73195  0.25331  0.60843  Biso   1.000  H 
  H191     1.0000 0.70429  0.25611  0.69010  Biso   1.000  H 
  C181     1.0000 0.73282  0.16265  0.64783  Biso   1.000  C 
  H192     1.0000 0.72898  0.13487  0.60274  Biso   1.000  H 
  C182     1.0000 0.80403  0.16314  0.66649  Biso   1.000  C 
  H193     1.0000 0.70774  0.13427  0.68353  Biso   1.000  H 
  H194     1.0000 0.80728  0.18006  0.71690  Biso   1.000  H 
  H195     1.0000 0.83106  0.19833  0.63635  Biso   1.000  H 
  H196     1.0000 0.82667  0.11539  0.66256  Biso   1.000  H 
  C183     1.0000 0.34640  0.84640  0.50000  Biso   1.000  C 
  O95      1.0000 0.40471  0.82954  0.50000  Biso   1.000  O 
  O96      1.0000 0.32954  0.90471  0.50000  Biso   1.000  O 
  C184     1.0000 0.29500  0.79500  0.50000  Biso   1.000  C 
  C185     1.0000 0.23249  0.81563  0.50000  Biso   1.000  C 
  H197     1.0000 0.22128  0.86954  0.50000  Biso   1.000  H 
  O97      1.0000 0.12353  0.78130  0.53412  Biso   1.000  O 
  C186     1.0000 0.18442  0.76752  0.50000  Biso   1.000  C 
  C187     1.0000 0.20500  0.70501  0.50000  Biso   1.000  C 
  C188     1.0000 0.26751  0.68442  0.50000  Biso   1.000  C 
  C189     1.0000 0.31563  0.73249  0.50000  Biso   1.000  C 
  H198     1.0000 0.36954  0.72128  0.50000  Biso   1.000  H 
  H199     1.0000 0.27872  0.63051  0.50000  Biso   1.000  H 
  O98      1.0000 0.17046  0.59530  0.50000  Biso   1.000  O 
  C190     1.0000 0.15360  0.65361  0.50000  Biso   1.000  C 
  O99      1.0000 0.09529  0.67047  0.50000  Biso   1.000  O 
  C191     1.0000 0.13327  0.77535  0.60311  Biso   1.000  C 
  C192     1.0000 0.14517  0.70490  0.63007  Biso   1.000  C 
  H200     1.0000 0.17561  0.80029  0.61767  Biso   1.000  H 
  H201     1.0000 0.09455  0.79960  0.62745  Biso   1.000  H 
  H202     1.0000 0.11537  0.66962  0.60668  Biso   1.000  H 
  C193     1.0000 0.21784  0.68326  0.63359  Biso   1.000  C 
  H203     1.0000 0.12633  0.70131  0.68012  Biso   1.000  H 
  H204     1.0000 0.22482  0.63721  0.60763  Biso   1.000  H 
  H205     1.0000 0.24994  0.72183  0.61500  Biso   1.000  H 
  C194     1.0000 0.23945  0.67247  0.70360  Biso   1.000  C 
  H206     1.0000 0.21018  0.63349  0.72715  Biso   1.000  H 
  C195     1.0000 0.31326  0.66034  0.70576  Biso   1.000  C 
  H207     1.0000 0.23083  0.71702  0.72882  Biso   1.000  H 
  H208     1.0000 0.34016  0.70405  0.69065  Biso   1.000  H 
  H209     1.0000 0.32481  0.61780  0.67673  Biso   1.000  H 
  H210     1.0000 0.32857  0.64982  0.75692  Biso   1.000  H 
  C196     1.0000 0.34640  0.34640  0.00000  Biso   1.000  C 
  O100     1.0000 0.40471  0.32954  0.00000  Biso   1.000  O 
  O101     1.0000 0.32954  0.40471  0.00000  Biso   1.000  O 
  C197     1.0000 0.29500  0.29500  0.00000  Biso   1.000  C 
  C198     1.0000 0.23249  0.31563  0.00000  Biso   1.000  C 
  H211     1.0000 0.22128  0.36954  0.00000  Biso   1.000  H 
  O102     1.0000 0.12348  0.28648  0.97199  Biso   1.000  O 
  C199     1.0000 0.18442  0.26751  0.00000  Biso   1.000  C 
  C200     1.0000 0.20500  0.20500  0.00000  Biso   1.000  C 
  C201     1.0000 0.26751  0.18442  0.00000  Biso   1.000  C 
  C202     1.0000 0.31563  0.23249  0.00000  Biso   1.000  C 
  H212     1.0000 0.36954  0.22128  0.00000  Biso   1.000  H 
  H213     1.0000 0.27872  0.13051  0.00000  Biso   1.000  H 
  O103     1.0000 0.17046  0.09530  0.00000  Biso   1.000  O 
  C203     1.0000 0.15360  0.15360  0.00000  Biso   1.000  C 
  O104     1.0000 0.09529  0.17046  0.00000  Biso   1.000  O 
  C204     1.0000 0.13239  0.28650  0.90224  Biso   1.000  C 
  C205     1.0000 0.13674  0.35623  0.87337  Biso   1.000  C 
  H214     1.0000 0.17815  0.26427  0.88593  Biso   1.000  H 
  H215     1.0000 0.09498  0.25818  0.88145  Biso   1.000  H 
  H216     1.0000 0.11297  0.35564  0.82418  Biso   1.000  H 
  C206     1.0000 0.10404  0.40334  0.91905  Biso   1.000  C 
  H217     1.0000 0.18928  0.36992  0.86749  Biso   1.000  H 
  H218     1.0000 0.12506  0.40790  0.96600  Biso   1.000  H 
  H219     1.0000 0.11569  0.44663  0.89076  Biso   1.000  H 
  C207     1.0000 0.02968  0.39178  0.92172  Biso   1.000  C 
  H220     1.0000 0.01242  0.38847  0.87284  Biso   1.000  H 
  C208     1.0000 0.99176  0.34305  0.96599  Biso   1.000  C 
  H221     1.0000 0.01512  0.43855  0.94135  Biso   1.000  H 
  H222     1.0000 0.98859  0.36207  0.01773  Biso   1.000  H 
  H223     1.0000 0.01467  0.29461  0.97130  Biso   1.000  H 
  H224     1.0000 0.94499  0.33850  0.94364  Biso   1.000  H 
  C209     1.0000 0.00000  0.84640  0.15360  Biso   1.000  C 
  O105     1.0000 0.00000  0.90471  0.17046  Biso   1.000  O 
  O106     1.0000 0.00000  0.82954  0.09529  Biso   1.000  O 
  C210     1.0000 0.00000  0.79500  0.20500  Biso   1.000  C 
  C211     1.0000 0.00000  0.73249  0.18437  Biso   1.000  C 
  H225     1.0000 0.00000  0.72128  0.13046  Biso   1.000  H 
  O107     1.0000 0.01524  0.61756  0.21486  Biso   1.000  O 
  C212     1.0000 0.00000  0.68442  0.23249  Biso   1.000  C 
  C213     1.0000 0.00000  0.70500  0.29500  Biso   1.000  C 
  C214     1.0000 0.00000  0.76751  0.31558  Biso   1.000  C 
  C215     1.0000 0.00000  0.81563  0.26751  Biso   1.000  C 
  H226     1.0000 0.00000  0.86954  0.27872  Biso   1.000  H 
  H227     1.0000 0.00000  0.77872  0.36949  Biso   1.000  H 
  O108     1.0000 0.00000  0.67046  0.40470  Biso   1.000  O 
  C216     1.0000 0.00000  0.65360  0.34640  Biso   1.000  C 
  O109     1.0000 0.00000  0.59529  0.32954  Biso   1.000  O 
  C217     1.0000 0.98157  0.59992  0.15806  Biso   1.000  C 
  C218     1.0000 0.90959  0.60135  0.16657  Biso   1.000  C 
  H228     1.0000 0.99911  0.62490  0.11411  Biso   1.000  H 
  H229     1.0000 0.99400  0.54890  0.14957  Biso   1.000  H 
  H230     1.0000 0.89169  0.55692  0.14203  Biso   1.000  H 
  C219     1.0000 0.87315  0.65513  0.13220  Biso   1.000  C 
  H231     1.0000 0.90027  0.59510  0.21713  Biso   1.000  H 
  H232     1.0000 0.90234  0.69793  0.11695  Biso   1.000  H 
  H233     1.0000 0.85268  0.63441  0.08740  Biso   1.000  H 
  C220     1.0000 0.81831  0.67671  0.17353  Biso   1.000  C 
  H234     1.0000 0.78421  0.63646  0.17017  Biso   1.000  H 
  C221     1.0000 0.83546  0.69003  0.24692  Biso   1.000  C 
  H235     1.0000 0.79581  0.71895  0.14972  Biso   1.000  H 
  H236     1.0000 0.84041  0.64820  0.27932  Biso   1.000  H 
  H237     1.0000 0.79839  0.72212  0.26613  Biso   1.000  H 
  H238     1.0000 0.88098  0.71606  0.24638  Biso   1.000  H 
  C222     1.0000 0.00000  0.34640  0.65360  Biso   1.000  C 
  O110     1.0000 0.00000  0.40471  0.67046  Biso   1.000  O 
  O111     1.0000 0.00000  0.32954  0.59529  Biso   1.000  O 
  C223     1.0000 0.00000  0.29500  0.70500  Biso   1.000  C 
  C224     1.0000 0.00000  0.23249  0.68437  Biso   1.000  C 
  H239     1.0000 0.00000  0.22128  0.63046  Biso   1.000  H 
  O112     1.0000 0.99979  0.11788  0.71560  Biso   1.000  O 
  C225     1.0000 0.00000  0.18442  0.73248  Biso   1.000  C 
  C226     1.0000 0.00000  0.20500  0.79499  Biso   1.000  C 
  C227     1.0000 0.00000  0.26751  0.81558  Biso   1.000  C 
  C228     1.0000 0.00000  0.31563  0.76751  Biso   1.000  C 
  H240     1.0000 0.00000  0.36954  0.77872  Biso   1.000  H 
  H241     1.0000 0.00000  0.27872  0.86949  Biso   1.000  H 
  O113     1.0000 0.00000  0.17046  0.90470  Biso   1.000  O 
  C229     1.0000 0.00000  0.15360  0.84639  Biso   1.000  C 
  O114     1.0000 0.00000  0.09529  0.82953  Biso   1.000  O 
  C230     1.0000 0.06232  0.09784  0.69932  Biso   1.000  C 
  C231     1.0000 0.09773  0.12904  0.63787  Biso   1.000  C 
  H242     1.0000 0.09386  0.10241  0.74342  Biso   1.000  H 
  H243     1.0000 0.05454  0.04621  0.68759  Biso   1.000  H 
  H244     1.0000 0.11279  0.17851  0.65213  Biso   1.000  H 
  C232     1.0000 0.06914  0.13221  0.56738  Biso   1.000  C 
  H245     1.0000 0.14237  0.09978  0.63402  Biso   1.000  H 
  H246     1.0000 0.05925  0.18370  0.55622  Biso   1.000  H 
  H247     1.0000 0.10674  0.11294  0.53421  Biso   1.000  H 
  C233     1.0000 0.00584  0.09364  0.55513  Biso   1.000  C 
  H248     1.0000 0.99028  0.06859  0.59929  Biso   1.000  H 
  C234     1.0000 0.95253  0.13657  0.52816  Biso   1.000  C 
  H249     1.0000 0.01359  0.05713  0.51591  Biso   1.000  H 
  H250     1.0000 0.93878  0.17074  0.56687  Biso   1.000  H 
  H251     1.0000 0.91048  0.10427  0.51594  Biso   1.000  H 
  H252     1.0000 0.97056  0.16182  0.48340  Biso   1.000  H 
  C235     1.0000 0.50000  0.84640  0.65360  Biso   1.000  C 
  O115     1.0000 0.50000  0.90471  0.67046  Biso   1.000  O 
  O116     1.0000 0.50000  0.82954  0.59529  Biso   1.000  O 
  C236     1.0000 0.50000  0.79500  0.70500  Biso   1.000  C 
  C237     1.0000 0.50000  0.73249  0.68437  Biso   1.000  C 
  H253     1.0000 0.50000  0.72128  0.63046  Biso   1.000  H 
  O117     1.0000 0.50314  0.61762  0.71491  Biso   1.000  O 
  C238     1.0000 0.50000  0.68442  0.73248  Biso   1.000  C 
  C239     1.0000 0.50000  0.70500  0.79499  Biso   1.000  C 
  C240     1.0000 0.50000  0.76751  0.81558  Biso   1.000  C 
  C241     1.0000 0.50000  0.81563  0.76751  Biso   1.000  C 
  H254     1.0000 0.50000  0.86954  0.77872  Biso   1.000  H 
  H255     1.0000 0.50000  0.77872  0.86949  Biso   1.000  H 
  O118     1.0000 0.50000  0.67046  0.90470  Biso   1.000  O 
  C242     1.0000 0.50000  0.65360  0.84639  Biso   1.000  C 
  O119     1.0000 0.50000  0.59529  0.82953  Biso   1.000  O 
  C243     1.0000 0.56026  0.60451  0.68024  Biso   1.000  C 
  C244     1.0000 0.55359  0.53882  0.64396  Biso   1.000  C 
  H256     1.0000 0.57049  0.64150  0.64314  Biso   1.000  H 
  H257     1.0000 0.60229  0.60457  0.71445  Biso   1.000  H 
  H258     1.0000 0.60362  0.52410  0.62610  Biso   1.000  H 
  C245     1.0000 0.50536  0.54101  0.58821  Biso   1.000  C 
  H259     1.0000 0.53597  0.50152  0.67680  Biso   1.000  H 
  H260     1.0000 0.52676  0.57070  0.54824  Biso   1.000  H 
  H261     1.0000 0.50581  0.49157  0.56912  Biso   1.000  H 
  C246     1.0000 0.43462  0.56267  0.60250  Biso   1.000  C 
  H262     1.0000 0.42426  0.56264  0.65588  Biso   1.000  H 
  C247     1.0000 0.41734  0.62666  0.57204  Biso   1.000  C 
  H263     1.0000 0.40333  0.52685  0.58070  Biso   1.000  H 
  H264     1.0000 0.42132  0.66512  0.60781  Biso   1.000  H 
  H265     1.0000 0.36727  0.62448  0.55848  Biso   1.000  H 
  H266     1.0000 0.44606  0.63605  0.52874  Biso   1.000  H 
  C248     1.0000 0.50000  0.34640  0.15360  Biso   1.000  C 
  O120     1.0000 0.50000  0.40471  0.17046  Biso   1.000  O 
  O121     1.0000 0.50000  0.32954  0.09529  Biso   1.000  O 
  C249     1.0000 0.50000  0.29500  0.20500  Biso   1.000  C 
  C250     1.0000 0.50000  0.23249  0.18437  Biso   1.000  C 
  H267     1.0000 0.50000  0.22128  0.13046  Biso   1.000  H 
  O122     1.0000 0.54629  0.13107  0.22071  Biso   1.000  O 
  C251     1.0000 0.50000  0.18442  0.23249  Biso   1.000  C 
  C252     1.0000 0.50000  0.20500  0.29500  Biso   1.000  C 
  C253     1.0000 0.50000  0.26751  0.31558  Biso   1.000  C 
  C254     1.0000 0.50000  0.31563  0.26751  Biso   1.000  C 
  H268     1.0000 0.50000  0.36954  0.27872  Biso   1.000  H 
  H269     1.0000 0.50000  0.27872  0.36949  Biso   1.000  H 
  O123     1.0000 0.50000  0.17046  0.40470  Biso   1.000  O 
  C255     1.0000 0.50000  0.15360  0.34640  Biso   1.000  C 
  O124     1.0000 0.50000  0.09529  0.32954  Biso   1.000  O 
  C256     1.0000 0.52305  0.08746  0.17673  Biso   1.000  C 
  C257     1.0000 0.46240  0.05854  0.20276  Biso   1.000  C 
  H270     1.0000 0.51448  0.11083  0.12986  Biso   1.000  H 
  H271     1.0000 0.55987  0.04967  0.16920  Biso   1.000  H 
  H272     1.0000 0.45297  0.02149  0.16552  Biso   1.000  H 
  C258     1.0000 0.40549  0.11002  0.20761  Biso   1.000  C 
  H273     1.0000 0.47307  0.03230  0.24683  Biso   1.000  H 
  H274     1.0000 0.41109  0.15070  0.17422  Biso   1.000  H 
  H275     1.0000 0.37162  0.08407  0.18653  Biso   1.000  H 
  C259     1.0000 0.36971  0.13047  0.27081  Biso   1.000  C 
  H276     1.0000 0.39182  0.11068  0.31434  Biso   1.000  H 
  C260     1.0000 0.35969  0.20247  0.28145  Biso   1.000  C 
  H277     1.0000 0.31911  0.11344  0.26890  Biso   1.000  H 
  H278     1.0000 0.38553  0.23364  0.24661  Biso   1.000  H 
  H279     1.0000 0.37534  0.21429  0.33076  Biso   1.000  H 
  H280     1.0000 0.30915  0.21410  0.27921  Biso   1.000  H 
  C261     1.0000 0.00000  0.84640  0.84640  Biso   1.000  C 
  O125     1.0000 0.00000  0.90471  0.82954  Biso   1.000  O 
  O126     1.0000 0.00000  0.82954  0.90471  Biso   1.000  O 
  C262     1.0000 0.00000  0.79500  0.79500  Biso   1.000  C 
  C263     1.0000 0.00000  0.73249  0.81563  Biso   1.000  C 
  H281     1.0000 0.00000  0.72128  0.86954  Biso   1.000  H 
  O127     1.0000 0.97235  0.62348  0.78591  Biso   1.000  O 
  C264     1.0000 0.00000  0.68442  0.76752  Biso   1.000  C 
  C265     1.0000 0.00000  0.70500  0.70501  Biso   1.000  C 
  C266     1.0000 0.00000  0.76751  0.68442  Biso   1.000  C 
  C267     1.0000 0.00000  0.81563  0.73249  Biso   1.000  C 
  H282     1.0000 0.00000  0.86954  0.72128  Biso   1.000  H 
  H283     1.0000 0.00000  0.77872  0.63051  Biso   1.000  H 
  O128     1.0000 0.00000  0.67046  0.59530  Biso   1.000  O 
  C268     1.0000 0.00000  0.65360  0.65361  Biso   1.000  C 
  O129     1.0000 0.00000  0.59529  0.67047  Biso   1.000  O 
  C269     1.0000 0.90410  0.63360  0.78414  Biso   1.000  C 
  C270     1.0000 0.87632  0.63904  0.85450  Biso   1.000  C 
  H284     1.0000 0.88624  0.67338  0.75050  Biso   1.000  H 
  H285     1.0000 0.88694  0.59138  0.76295  Biso   1.000  H 
  H286     1.0000 0.83161  0.60828  0.85548  Biso   1.000  H 
  C271     1.0000 0.91969  0.61394  0.91057  Biso   1.000  C 
  H287     1.0000 0.86655  0.69151  0.86088  Biso   1.000  H 
  H288     1.0000 0.95228  0.65131  0.92293  Biso   1.000  H 
  H289     1.0000 0.88938  0.60593  0.95478  Biso   1.000  H 
  C272     1.0000 0.95477  0.54641  0.90008  Biso   1.000  C 
  H290     1.0000 0.92378  0.52178  0.86624  Biso   1.000  H 
  C273     1.0000 0.02825  0.54213  0.87761  Biso   1.000  C 
  H291     1.0000 0.95400  0.52042  0.94763  Biso   1.000  H 
  H292     1.0000 0.05905  0.54343  0.92174  Biso   1.000  H 
  H293     1.0000 0.04622  0.57500  0.83961  Biso   1.000  H 
  H294     1.0000 0.02919  0.49460  0.85522  Biso   1.000  H 
  C274     1.0000 0.00000  0.34640  0.34640  Biso   1.000  C 
  O130     1.0000 0.00000  0.40471  0.32954  Biso   1.000  O 
  O131     1.0000 0.00000  0.32954  0.40471  Biso   1.000  O 
  C275     1.0000 0.00000  0.29500  0.29500  Biso   1.000  C 
  C276     1.0000 0.00000  0.23249  0.31563  Biso   1.000  C 
  H295     1.0000 0.00000  0.22128  0.36954  Biso   1.000  H 
  O132     1.0000 0.96836  0.12481  0.28396  Biso   1.000  O 
  C277     1.0000 0.00000  0.18442  0.26751  Biso   1.000  C 
  C278     1.0000 0.00000  0.20500  0.20500  Biso   1.000  C 
  C279     1.0000 0.00000  0.26751  0.18442  Biso   1.000  C 
  C280     1.0000 0.00000  0.31563  0.23249  Biso   1.000  C 
  H296     1.0000 0.00000  0.36954  0.22128  Biso   1.000  H 
  H297     1.0000 0.00000  0.27872  0.13051  Biso   1.000  H 
  O133     1.0000 0.00000  0.17046  0.09530  Biso   1.000  O 
  C281     1.0000 0.00000  0.15360  0.15360  Biso   1.000  C 
  O134     1.0000 0.00000  0.09529  0.17046  Biso   1.000  O 
  C282     1.0000 0.00606  0.09895  0.33330  Biso   1.000  C 
  C283     1.0000 0.07431  0.08674  0.30834  Biso   1.000  C 
  H298     1.0000 0.00420  0.12451  0.38037  Biso   1.000  H 
  H299     1.0000 0.98232  0.05169  0.34124  Biso   1.000  H 
  H300     1.0000 0.05957  0.05682  0.26630  Biso   1.000  H 
  C284     1.0000 0.13144  0.13466  0.28388  Biso   1.000  C 
  H301     1.0000 0.09432  0.05793  0.34925  Biso   1.000  H 
  H302     1.0000 0.11756  0.18310  0.29370  Biso   1.000  H 
  H303     1.0000 0.17735  0.12311  0.30909  Biso   1.000  H 
  C285     1.0000 0.15040  0.13826  0.21156  Biso   1.000  C 
  H304     1.0000 0.11500  0.11330  0.18249  Biso   1.000  H 
  C286     1.0000 0.15535  0.20722  0.18321  Biso   1.000  C 
  H305     1.0000 0.19692  0.11529  0.20406  Biso   1.000  H 
  H306     1.0000 0.20137  0.22639  0.19867  Biso   1.000  H 
  H307     1.0000 0.11896  0.23693  0.20608  Biso   1.000  H 
  H308     1.0000 0.14928  0.21085  0.12913  Biso   1.000  H 
  C287     1.0000 0.50000  0.84640  0.34640  Biso   1.000  C 
  O135     1.0000 0.50000  0.90471  0.32954  Biso   1.000  O 
  O136     1.0000 0.50000  0.82954  0.40471  Biso   1.000  O 
  C288     1.0000 0.50000  0.79500  0.29500  Biso   1.000  C 
  C289     1.0000 0.50000  0.73249  0.31563  Biso   1.000  C 
  H309     1.0000 0.50000  0.72128  0.36954  Biso   1.000  H 
  O137     1.0000 0.45907  0.62697  0.27906  Biso   1.000  O 
  C290     1.0000 0.50000  0.68442  0.26751  Biso   1.000  C 
  C291     1.0000 0.50000  0.70500  0.20500  Biso   1.000  C 
  C292     1.0000 0.50000  0.76751  0.18442  Biso   1.000  C 
  C293     1.0000 0.50000  0.81563  0.23249  Biso   1.000  C 
  H310     1.0000 0.50000  0.86954  0.22128  Biso   1.000  H 
  H311     1.0000 0.50000  0.77872  0.13051  Biso   1.000  H 
  O138     1.0000 0.50000  0.67046  0.09530  Biso   1.000  O 
  C294     1.0000 0.50000  0.65360  0.15360  Biso   1.000  C 
  O139     1.0000 0.50000  0.59529  0.17046  Biso   1.000  O 
  C295     1.0000 0.47266  0.58913  0.33355  Biso   1.000  C 
  C296     1.0000 0.52981  0.54426  0.32205  Biso   1.000  C 
  H312     1.0000 0.47517  0.61913  0.37732  Biso   1.000  H 
  H313     1.0000 0.42931  0.55853  0.34081  Biso   1.000  H 
  H314     1.0000 0.52673  0.52508  0.27210  Biso   1.000  H 
  C297     1.0000 0.59294  0.58176  0.33704  Biso   1.000  C 
  H315     1.0000 0.52643  0.50247  0.35553  Biso   1.000  H 
  H316     1.0000 0.58295  0.61250  0.37486  Biso   1.000  H 
  H317     1.0000 0.62813  0.54944  0.36086  Biso   1.000  H 
  C298     1.0000 0.62613  0.61796  0.27570  Biso   1.000  C 
  H318     1.0000 0.60584  0.66332  0.26476  Biso   1.000  H 
  C299     1.0000 0.69590  0.64352  0.27921  Biso   1.000  C 
  H319     1.0000 0.61793  0.59124  0.23114  Biso   1.000  H 
  H320     1.0000 0.72270  0.63260  0.32412  Biso   1.000  H 
  H321     1.0000 0.69648  0.69687  0.27070  Biso   1.000  H 
  H322     1.0000 0.71938  0.62027  0.23909  Biso   1.000  H 
  C300     1.0000 0.50000  0.34640  0.84640  Biso   1.000  C 
  O140     1.0000 0.50000  0.40471  0.82954  Biso   1.000  O 
  O141     1.0000 0.50000  0.32954  0.90471  Biso   1.000  O 
  C301     1.0000 0.50000  0.29500  0.79500  Biso   1.000  C 
  C302     1.0000 0.50000  0.23249  0.81563  Biso   1.000  C 
  H323     1.0000 0.50000  0.22128  0.86954  Biso   1.000  H 
  O142     1.0000 0.45186  0.13137  0.78136  Biso   1.000  O 
  C303     1.0000 0.50000  0.18442  0.76752  Biso   1.000  C 
  C304     1.0000 0.50000  0.20500  0.70501  Biso   1.000  C 
  C305     1.0000 0.50000  0.26751  0.68442  Biso   1.000  C 
  C306     1.0000 0.50000  0.31563  0.73249  Biso   1.000  C 
  H324     1.0000 0.50000  0.36954  0.72128  Biso   1.000  H 
  H325     1.0000 0.50000  0.27872  0.63051  Biso   1.000  H 
  O143     1.0000 0.50000  0.17046  0.59530  Biso   1.000  O 
  C307     1.0000 0.50000  0.15360  0.65361  Biso   1.000  C 
  O144     1.0000 0.50000  0.09529  0.67047  Biso   1.000  O 
  C308     1.0000 0.47644  0.08630  0.82538  Biso   1.000  C 
  C309     1.0000 0.53671  0.05266  0.80458  Biso   1.000  C 
  H326     1.0000 0.48013  0.10951  0.87325  Biso   1.000  H 
  H327     1.0000 0.44010  0.04791  0.83133  Biso   1.000  H 
  H328     1.0000 0.54374  0.05175  0.75330  Biso   1.000  H 
  C310     1.0000 0.59681  0.08071  0.83980  Biso   1.000  C 
  H329     1.0000 0.52883  0.00143  0.81842  Biso   1.000  H 
  H330     1.0000 0.58097  0.10467  0.88306  Biso   1.000  H 
  H331     1.0000 0.62548  0.04194  0.86138  Biso   1.000  H 
  C311     1.0000 0.63956  0.12406  0.79079  Biso   1.000  C 
  H332     1.0000 0.61872  0.17074  0.77833  Biso   1.000  H 
  C312     1.0000 0.70988  0.14024  0.81072  Biso   1.000  C 
  H333     1.0000 0.63850  0.10069  0.74433  Biso   1.000  H 
  H334     1.0000 0.72007  0.12501  0.86068  Biso   1.000  H 
  H335     1.0000 0.71617  0.19263  0.80669  Biso   1.000  H 
  H336     1.0000 0.74589  0.11658  0.77944  Biso   1.000  H 
