data_image0
_cell_length_a       26.896
_cell_length_b       26.896
_cell_length_c       26.896
_cell_angle_alpha    90
_cell_angle_beta     90
_cell_angle_gamma    90

_symmetry_space_group_name_H-M    "P 1"
_symmetry_int_tables_number       1

loop_
  _symmetry_equiv_pos_as_xyz
  'x, y, z'

loop_
  _atom_site_label
  _atom_site_occupancy
  _atom_site_fract_x
  _atom_site_fract_y
  _atom_site_fract_z
  _atom_site_thermal_displace_type
  _atom_site_B_iso_or_equiv
  _atom_site_type_symbol
  Zr1      1.0000 0.09204  0.00000  0.00000  Biso   1.000  Zr
  Zr2      1.0000 0.90796  0.00000  0.00000  Biso   1.000  Zr
  Zr3      1.0000 0.00000  0.09204  0.00000  Biso   1.000  Zr
  Zr4      1.0000 0.00000  0.90796  0.00000  Biso   1.000  Zr
  Zr5      1.0000 0.00000  0.00000  0.09204  Biso   1.000  Zr
  Zr6      1.0000 0.00000  0.00000  0.90796  Biso   1.000  Zr
  Zr7      1.0000 0.09204  0.50000  0.50000  Biso   1.000  Zr
  Zr8      1.0000 0.90796  0.50000  0.50000  Biso   1.000  Zr
  Zr9      1.0000 0.00000  0.59204  0.50000  Biso   1.000  Zr
  Zr10     1.0000 0.00000  0.40796  0.50000  Biso   1.000  Zr
  Zr11     1.0000 0.00000  0.50000  0.59204  Biso   1.000  Zr
  Zr12     1.0000 0.00000  0.50000  0.40796  Biso   1.000  Zr
  Zr13     1.0000 0.59204  0.00000  0.50000  Biso   1.000  Zr
  Zr14     1.0000 0.40796  0.00000  0.50000  Biso   1.000  Zr
  Zr15     1.0000 0.50000  0.09204  0.50000  Biso   1.000  Zr
  Zr16     1.0000 0.50000  0.90796  0.50000  Biso   1.000  Zr
  Zr17     1.0000 0.50000  0.00000  0.59204  Biso   1.000  Zr
  Zr18     1.0000 0.50000  0.00000  0.40796  Biso   1.000  Zr
  Zr19     1.0000 0.59204  0.50000  0.00000  Biso   1.000  Zr
  Zr20     1.0000 0.40796  0.50000  0.00000  Biso   1.000  Zr
  Zr21     1.0000 0.50000  0.59204  0.00000  Biso   1.000  Zr
  Zr22     1.0000 0.50000  0.40796  0.00000  Biso   1.000  Zr
  Zr23     1.0000 0.50000  0.50000  0.09204  Biso   1.000  Zr
  Zr24     1.0000 0.50000  0.50000  0.90796  Biso   1.000  Zr
  O1       1.0000 0.04540  0.04540  0.04540  Biso   1.000  O 
  O2       1.0000 0.95460  0.95460  0.04540  Biso   1.000  O 
  O3       1.0000 0.95460  0.04540  0.95460  Biso   1.000  O 
  O4       1.0000 0.04540  0.95460  0.95460  Biso   1.000  O 
  O5       1.0000 0.04540  0.04540  0.95460  Biso   1.000  O 
  O6       1.0000 0.95460  0.95460  0.95460  Biso   1.000  O 
  O7       1.0000 0.04540  0.95460  0.04540  Biso   1.000  O 
  O8       1.0000 0.95460  0.04540  0.04540  Biso   1.000  O 
  O9       1.0000 0.04540  0.54540  0.54540  Biso   1.000  O 
  O10      1.0000 0.95460  0.45460  0.54540  Biso   1.000  O 
  O11      1.0000 0.95460  0.54540  0.45460  Biso   1.000  O 
  O12      1.0000 0.04540  0.45460  0.45460  Biso   1.000  O 
  O13      1.0000 0.04540  0.54540  0.45460  Biso   1.000  O 
  O14      1.0000 0.95460  0.45460  0.45460  Biso   1.000  O 
  O15      1.0000 0.04540  0.45460  0.54540  Biso   1.000  O 
  O16      1.0000 0.95460  0.54540  0.54540  Biso   1.000  O 
  O17      1.0000 0.54540  0.04540  0.54540  Biso   1.000  O 
  O18      1.0000 0.45460  0.95460  0.54540  Biso   1.000  O 
  O19      1.0000 0.45460  0.04540  0.45460  Biso   1.000  O 
  O20      1.0000 0.54540  0.95460  0.45460  Biso   1.000  O 
  O21      1.0000 0.54540  0.04540  0.45460  Biso   1.000  O 
  O22      1.0000 0.45460  0.95460  0.45460  Biso   1.000  O 
  O23      1.0000 0.54540  0.95460  0.54540  Biso   1.000  O 
  O24      1.0000 0.45460  0.04540  0.54540  Biso   1.000  O 
  O25      1.0000 0.54540  0.54540  0.04540  Biso   1.000  O 
  O26      1.0000 0.45460  0.45460  0.04540  Biso   1.000  O 
  O27      1.0000 0.45460  0.54540  0.95460  Biso   1.000  O 
  O28      1.0000 0.54540  0.45460  0.95460  Biso   1.000  O 
  O29      1.0000 0.54540  0.54540  0.95460  Biso   1.000  O 
  O30      1.0000 0.45460  0.45460  0.95460  Biso   1.000  O 
  O31      1.0000 0.54540  0.45460  0.04540  Biso   1.000  O 
  O32      1.0000 0.45460  0.54540  0.04540  Biso   1.000  O 
  O33      1.0000 0.13260  0.00000  0.07190  Biso   1.000  O 
  C1       1.0000 0.11720  0.00000  0.11720  Biso   1.000  C 
  O34      1.0000 0.07190  0.00000  0.13260  Biso   1.000  O 
  C2       1.0000 0.15650  0.00000  0.15650  Biso   1.000  C 
  C3       1.0000 0.20580  0.00000  0.14470  Biso   1.000  C 
  C4       1.0000 0.14470  0.00000  0.20580  Biso   1.000  C 
  C5       1.0000 0.24200  0.00000  0.17950  Biso   1.000  C 
  H1       1.0000 0.21490  0.00000  0.11140  Biso   1.000  H 
  C6       1.0000 0.17950  0.00000  0.24200  Biso   1.000  C 
  H2       1.0000 0.11140  0.00000  0.21490  Biso   1.000  H 
  C7       1.0000 0.23070  0.00000  0.23070  Biso   1.000  C 
  C8       1.0000 0.26930  0.00000  0.26930  Biso   1.000  C 
  H3       1.0000 0.27510  0.00000  0.16950  Biso   1.000  H 
  C9       1.0000 0.32050  0.00000  0.25800  Biso   1.000  C 
  N1       1.0000 0.15807  0.99174  0.29441  Biso   1.000  N 
  C10      1.0000 0.25800  0.00000  0.32050  Biso   1.000  C 
  C11      1.0000 0.35530  0.00000  0.29420  Biso   1.000  C 
  N2       1.0000 0.34094  0.99158  0.20616  Biso   1.000  N 
  C12      1.0000 0.29420  0.00000  0.35530  Biso   1.000  C 
  H4       1.0000 0.22490  0.00000  0.33050  Biso   1.000  H 
  C13      1.0000 0.34350  0.00000  0.34350  Biso   1.000  C 
  C14      1.0000 0.38280  0.00000  0.38280  Biso   1.000  C 
  H5       1.0000 0.38860  0.00000  0.28510  Biso   1.000  H 
  H6       1.0000 0.28510  0.00000  0.38860  Biso   1.000  H 
  O35      1.0000 0.42810  0.00000  0.36740  Biso   1.000  O 
  O36      1.0000 0.36740  0.00000  0.42810  Biso   1.000  O 
  C15      1.0000 0.43989  0.97540  0.14674  Biso   1.000  C 
  C16      1.0000 0.37543  0.94825  0.20269  Biso   1.000  C 
  C17      1.0000 0.07032  0.08655  0.34063  Biso   1.000  C 
  C18      1.0000 0.11061  0.01725  0.30394  Biso   1.000  C 
  H7       1.0000 0.36804  0.92253  0.23413  Biso   1.000  H 
  C19      1.0000 0.43002  0.96628  0.20157  Biso   1.000  C 
  C20      1.0000 0.36930  0.91925  0.15496  Biso   1.000  C 
  C21      1.0000 0.39636  0.95222  0.11957  Biso   1.000  C 
  H8       1.0000 0.40938  0.93483  0.08573  Biso   1.000  H 
  H9       1.0000 0.36933  0.98178  0.11087  Biso   1.000  H 
  H10      1.0000 0.33033  0.91232  0.14299  Biso   1.000  H 
  H11      1.0000 0.38941  0.88331  0.15942  Biso   1.000  H 
  C22      1.0000 0.08876  0.99819  0.34963  Biso   1.000  C 
  H12      1.0000 0.11640  0.99070  0.37802  Biso   1.000  H 
  H13      1.0000 0.06766  0.96289  0.34095  Biso   1.000  H 
  C23      1.0000 0.05555  0.03936  0.36636  Biso   1.000  C 
  H14      1.0000 0.03939  0.10128  0.31799  Biso   1.000  H 
  C24      1.0000 0.11181  0.07418  0.30544  Biso   1.000  C 
  H15      1.0000 0.05582  0.04325  0.40745  Biso   1.000  H 
  H16      1.0000 0.01751  0.03264  0.35334  Biso   1.000  H 
  H17      1.0000 0.45595  0.93818  0.21590  Biso   1.000  H 
  H18      1.0000 0.43575  0.00127  0.22191  Biso   1.000  H 
  H19      1.0000 0.44085  0.01597  0.13712  Biso   1.000  H 
  H20      1.0000 0.14778  0.09052  0.31852  Biso   1.000  H 
  H21      1.0000 0.10584  0.08871  0.26730  Biso   1.000  H 
  H22      1.0000 0.07937  0.00695  0.27812  Biso   1.000  H 
  H23      1.0000 0.15405  0.95309  0.29878  Biso   1.000  H 
  H24      1.0000 0.35862  0.02481  0.19654  Biso   1.000  H 
  H25      1.0000 0.47553  0.95906  0.13472  Biso   1.000  H 
  H26      1.0000 0.08209  0.11347  0.36937  Biso   1.000  H 
  O37      1.0000 0.86740  0.00000  0.07190  Biso   1.000  O 
  C25      1.0000 0.88280  0.00000  0.11720  Biso   1.000  C 
  O38      1.0000 0.92810  0.00000  0.13260  Biso   1.000  O 
  C26      1.0000 0.84350  0.00000  0.15650  Biso   1.000  C 
  C27      1.0000 0.79420  0.00000  0.14470  Biso   1.000  C 
  C28      1.0000 0.85530  0.00000  0.20580  Biso   1.000  C 
  C29      1.0000 0.75800  0.00000  0.17950  Biso   1.000  C 
  H27      1.0000 0.78510  0.00000  0.11140  Biso   1.000  H 
  C30      1.0000 0.82050  0.00000  0.24200  Biso   1.000  C 
  H28      1.0000 0.88860  0.00000  0.21490  Biso   1.000  H 
  C31      1.0000 0.76930  0.00000  0.23070  Biso   1.000  C 
  C32      1.0000 0.73070  0.00000  0.26930  Biso   1.000  C 
  H29      1.0000 0.72490  0.00000  0.16950  Biso   1.000  H 
  C33      1.0000 0.67950  0.00000  0.25800  Biso   1.000  C 
  N3       1.0000 0.84193  0.00826  0.29441  Biso   1.000  N 
  C34      1.0000 0.74200  0.00000  0.32050  Biso   1.000  C 
  C35      1.0000 0.64470  0.00000  0.29420  Biso   1.000  C 
  N4       1.0000 0.65906  0.00842  0.20616  Biso   1.000  N 
  C36      1.0000 0.70580  0.00000  0.35530  Biso   1.000  C 
  H30      1.0000 0.77510  0.00000  0.33050  Biso   1.000  H 
  C37      1.0000 0.65650  0.00000  0.34350  Biso   1.000  C 
  C38      1.0000 0.61720  0.00000  0.38280  Biso   1.000  C 
  H31      1.0000 0.61140  0.00000  0.28510  Biso   1.000  H 
  H32      1.0000 0.71490  0.00000  0.38860  Biso   1.000  H 
  O39      1.0000 0.57190  0.00000  0.36740  Biso   1.000  O 
  O40      1.0000 0.63260  0.00000  0.42810  Biso   1.000  O 
  C39      1.0000 0.56011  0.02460  0.14674  Biso   1.000  C 
  C40      1.0000 0.62457  0.05175  0.20269  Biso   1.000  C 
  C41      1.0000 0.92968  0.91345  0.34063  Biso   1.000  C 
  C42      1.0000 0.88939  0.98275  0.30394  Biso   1.000  C 
  H33      1.0000 0.63196  0.07747  0.23413  Biso   1.000  H 
  C43      1.0000 0.56998  0.03371  0.20157  Biso   1.000  C 
  C44      1.0000 0.63070  0.08075  0.15496  Biso   1.000  C 
  C45      1.0000 0.60364  0.04778  0.11957  Biso   1.000  C 
  H34      1.0000 0.59062  0.06517  0.08573  Biso   1.000  H 
  H35      1.0000 0.63067  0.01822  0.11087  Biso   1.000  H 
  H36      1.0000 0.66967  0.08768  0.14299  Biso   1.000  H 
  H37      1.0000 0.61059  0.11669  0.15942  Biso   1.000  H 
  C46      1.0000 0.91124  0.00181  0.34963  Biso   1.000  C 
  H38      1.0000 0.88360  0.00930  0.37802  Biso   1.000  H 
  H39      1.0000 0.93234  0.03711  0.34095  Biso   1.000  H 
  C47      1.0000 0.94445  0.96063  0.36636  Biso   1.000  C 
  H40      1.0000 0.96061  0.89872  0.31799  Biso   1.000  H 
  C48      1.0000 0.88819  0.92582  0.30544  Biso   1.000  C 
  H41      1.0000 0.94418  0.95675  0.40745  Biso   1.000  H 
  H42      1.0000 0.98248  0.96736  0.35334  Biso   1.000  H 
  H43      1.0000 0.54405  0.06182  0.21590  Biso   1.000  H 
  H44      1.0000 0.56425  0.99874  0.22191  Biso   1.000  H 
  H45      1.0000 0.55915  0.98403  0.13712  Biso   1.000  H 
  H46      1.0000 0.85222  0.90948  0.31852  Biso   1.000  H 
  H47      1.0000 0.89416  0.91129  0.26730  Biso   1.000  H 
  H48      1.0000 0.92063  0.99305  0.27812  Biso   1.000  H 
  H49      1.0000 0.84595  0.04691  0.29878  Biso   1.000  H 
  H50      1.0000 0.64138  0.97519  0.19654  Biso   1.000  H 
  H51      1.0000 0.52447  0.04093  0.13472  Biso   1.000  H 
  H52      1.0000 0.91791  0.88653  0.36937  Biso   1.000  H 
  O41      1.0000 0.86740  0.00000  0.92810  Biso   1.000  O 
  C49      1.0000 0.88280  0.00000  0.88280  Biso   1.000  C 
  O42      1.0000 0.92810  0.00000  0.86740  Biso   1.000  O 
  C50      1.0000 0.84350  0.00000  0.84350  Biso   1.000  C 
  C51      1.0000 0.79420  0.00000  0.85530  Biso   1.000  C 
  C52      1.0000 0.85530  0.00000  0.79420  Biso   1.000  C 
  C53      1.0000 0.75800  0.00000  0.82050  Biso   1.000  C 
  H53      1.0000 0.78510  0.00000  0.88860  Biso   1.000  H 
  C54      1.0000 0.82050  0.00000  0.75800  Biso   1.000  C 
  H54      1.0000 0.88860  0.00000  0.78510  Biso   1.000  H 
  C55      1.0000 0.76930  0.00000  0.76930  Biso   1.000  C 
  C56      1.0000 0.73070  0.00000  0.73070  Biso   1.000  C 
  H55      1.0000 0.72490  0.00000  0.83050  Biso   1.000  H 
  C57      1.0000 0.67950  0.00000  0.74200  Biso   1.000  C 
  N5       1.0000 0.84193  0.99174  0.70560  Biso   1.000  N 
  C58      1.0000 0.74200  0.00000  0.67950  Biso   1.000  C 
  C59      1.0000 0.64470  0.00000  0.70580  Biso   1.000  C 
  N6       1.0000 0.65906  0.99158  0.79384  Biso   1.000  N 
  C60      1.0000 0.70580  0.00000  0.64470  Biso   1.000  C 
  H56      1.0000 0.77510  0.00000  0.66950  Biso   1.000  H 
  C61      1.0000 0.65650  0.00000  0.65650  Biso   1.000  C 
  C62      1.0000 0.61720  0.00000  0.61720  Biso   1.000  C 
  H57      1.0000 0.61140  0.00000  0.71490  Biso   1.000  H 
  H58      1.0000 0.71490  0.00000  0.61140  Biso   1.000  H 
  O43      1.0000 0.57190  0.00000  0.63260  Biso   1.000  O 
  O44      1.0000 0.63260  0.00000  0.57190  Biso   1.000  O 
  C63      1.0000 0.56011  0.97540  0.85326  Biso   1.000  C 
  C64      1.0000 0.62457  0.94825  0.79731  Biso   1.000  C 
  C65      1.0000 0.92968  0.08655  0.65937  Biso   1.000  C 
  C66      1.0000 0.88939  0.01725  0.69606  Biso   1.000  C 
  H59      1.0000 0.63196  0.92253  0.76587  Biso   1.000  H 
  C67      1.0000 0.56998  0.96628  0.79843  Biso   1.000  C 
  C68      1.0000 0.63070  0.91925  0.84504  Biso   1.000  C 
  C69      1.0000 0.60364  0.95222  0.88043  Biso   1.000  C 
  H60      1.0000 0.59062  0.93483  0.91427  Biso   1.000  H 
  H61      1.0000 0.63067  0.98178  0.88913  Biso   1.000  H 
  H62      1.0000 0.66967  0.91232  0.85702  Biso   1.000  H 
  H63      1.0000 0.61059  0.88331  0.84058  Biso   1.000  H 
  C70      1.0000 0.91124  0.99819  0.65037  Biso   1.000  C 
  H64      1.0000 0.88360  0.99070  0.62198  Biso   1.000  H 
  H65      1.0000 0.93234  0.96289  0.65905  Biso   1.000  H 
  C71      1.0000 0.94445  0.03936  0.63364  Biso   1.000  C 
  H66      1.0000 0.96061  0.10128  0.68201  Biso   1.000  H 
  C72      1.0000 0.88819  0.07418  0.69456  Biso   1.000  C 
  H67      1.0000 0.94418  0.04325  0.59255  Biso   1.000  H 
  H68      1.0000 0.98248  0.03264  0.64665  Biso   1.000  H 
  H69      1.0000 0.54405  0.93818  0.78410  Biso   1.000  H 
  H70      1.0000 0.56425  0.00127  0.77809  Biso   1.000  H 
  H71      1.0000 0.55915  0.01597  0.86288  Biso   1.000  H 
  H72      1.0000 0.85222  0.09052  0.68148  Biso   1.000  H 
  H73      1.0000 0.89416  0.08871  0.73270  Biso   1.000  H 
  H74      1.0000 0.92063  0.00695  0.72188  Biso   1.000  H 
  H75      1.0000 0.84595  0.95309  0.70122  Biso   1.000  H 
  H76      1.0000 0.64138  0.02481  0.80346  Biso   1.000  H 
  H77      1.0000 0.52447  0.95906  0.86528  Biso   1.000  H 
  H78      1.0000 0.91791  0.11347  0.63063  Biso   1.000  H 
  O45      1.0000 0.13260  0.00000  0.92810  Biso   1.000  O 
  C73      1.0000 0.11720  0.00000  0.88280  Biso   1.000  C 
  O46      1.0000 0.07190  0.00000  0.86740  Biso   1.000  O 
  C74      1.0000 0.15650  0.00000  0.84350  Biso   1.000  C 
  C75      1.0000 0.20580  0.00000  0.85530  Biso   1.000  C 
  C76      1.0000 0.14470  0.00000  0.79420  Biso   1.000  C 
  C77      1.0000 0.24200  0.00000  0.82050  Biso   1.000  C 
  H79      1.0000 0.21490  0.00000  0.88860  Biso   1.000  H 
  C78      1.0000 0.17950  0.00000  0.75800  Biso   1.000  C 
  H80      1.0000 0.11140  0.00000  0.78510  Biso   1.000  H 
  C79      1.0000 0.23070  0.00000  0.76930  Biso   1.000  C 
  C80      1.0000 0.26930  0.00000  0.73070  Biso   1.000  C 
  H81      1.0000 0.27510  0.00000  0.83050  Biso   1.000  H 
  C81      1.0000 0.32050  0.00000  0.74200  Biso   1.000  C 
  N7       1.0000 0.15807  0.00826  0.70560  Biso   1.000  N 
  C82      1.0000 0.25800  0.00000  0.67950  Biso   1.000  C 
  C83      1.0000 0.35530  0.00000  0.70580  Biso   1.000  C 
  N8       1.0000 0.34094  0.00842  0.79384  Biso   1.000  N 
  C84      1.0000 0.29420  0.00000  0.64470  Biso   1.000  C 
  H82      1.0000 0.22490  0.00000  0.66950  Biso   1.000  H 
  C85      1.0000 0.34350  0.00000  0.65650  Biso   1.000  C 
  C86      1.0000 0.38280  0.00000  0.61720  Biso   1.000  C 
  H83      1.0000 0.38860  0.00000  0.71490  Biso   1.000  H 
  H84      1.0000 0.28510  0.00000  0.61140  Biso   1.000  H 
  O47      1.0000 0.42810  0.00000  0.63260  Biso   1.000  O 
  O48      1.0000 0.36740  0.00000  0.57190  Biso   1.000  O 
  C87      1.0000 0.43989  0.02460  0.85326  Biso   1.000  C 
  C88      1.0000 0.37543  0.05175  0.79731  Biso   1.000  C 
  C89      1.0000 0.07032  0.91345  0.65937  Biso   1.000  C 
  C90      1.0000 0.11061  0.98275  0.69606  Biso   1.000  C 
  H85      1.0000 0.36804  0.07747  0.76587  Biso   1.000  H 
  C91      1.0000 0.43002  0.03371  0.79843  Biso   1.000  C 
  C92      1.0000 0.36930  0.08075  0.84504  Biso   1.000  C 
  C93      1.0000 0.39636  0.04778  0.88043  Biso   1.000  C 
  H86      1.0000 0.40938  0.06517  0.91427  Biso   1.000  H 
  H87      1.0000 0.36933  0.01822  0.88913  Biso   1.000  H 
  H88      1.0000 0.33033  0.08768  0.85702  Biso   1.000  H 
  H89      1.0000 0.38941  0.11669  0.84058  Biso   1.000  H 
  C94      1.0000 0.08876  0.00181  0.65037  Biso   1.000  C 
  H90      1.0000 0.11640  0.00930  0.62198  Biso   1.000  H 
  H91      1.0000 0.06766  0.03711  0.65905  Biso   1.000  H 
  C95      1.0000 0.05555  0.96063  0.63364  Biso   1.000  C 
  H92      1.0000 0.03939  0.89872  0.68201  Biso   1.000  H 
  C96      1.0000 0.11181  0.92582  0.69456  Biso   1.000  C 
  H93      1.0000 0.05582  0.95675  0.59255  Biso   1.000  H 
  H94      1.0000 0.01751  0.96736  0.64665  Biso   1.000  H 
  H95      1.0000 0.45595  0.06182  0.78410  Biso   1.000  H 
  H96      1.0000 0.43575  0.99874  0.77809  Biso   1.000  H 
  H97      1.0000 0.44085  0.98403  0.86288  Biso   1.000  H 
  H98      1.0000 0.14778  0.90948  0.68148  Biso   1.000  H 
  H99      1.0000 0.10584  0.91129  0.73270  Biso   1.000  H 
  H100     1.0000 0.07937  0.99305  0.72188  Biso   1.000  H 
  H101     1.0000 0.15405  0.04691  0.70122  Biso   1.000  H 
  H102     1.0000 0.35862  0.97519  0.80346  Biso   1.000  H 
  H103     1.0000 0.47553  0.04093  0.86528  Biso   1.000  H 
  H104     1.0000 0.08209  0.88653  0.63063  Biso   1.000  H 
  O49      1.0000 0.07190  0.13260  0.00000  Biso   1.000  O 
  C97      1.0000 0.11720  0.11720  0.00000  Biso   1.000  C 
  O50      1.0000 0.13260  0.07190  0.00000  Biso   1.000  O 
  C98      1.0000 0.15650  0.15650  0.00000  Biso   1.000  C 
  C99      1.0000 0.14470  0.20580  0.00000  Biso   1.000  C 
  C100     1.0000 0.20580  0.14470  0.00000  Biso   1.000  C 
  C101     1.0000 0.17950  0.24200  0.00000  Biso   1.000  C 
  H105     1.0000 0.11140  0.21490  0.00000  Biso   1.000  H 
  C102     1.0000 0.24200  0.17950  0.00000  Biso   1.000  C 
  H106     1.0000 0.21490  0.11140  0.00000  Biso   1.000  H 
  C103     1.0000 0.23070  0.23070  0.00000  Biso   1.000  C 
  C104     1.0000 0.26930  0.26930  0.00000  Biso   1.000  C 
  H107     1.0000 0.16950  0.27510  0.00000  Biso   1.000  H 
  C105     1.0000 0.25800  0.32050  0.00000  Biso   1.000  C 
  N9       1.0000 0.29402  0.15797  0.99126  Biso   1.000  N 
  C106     1.0000 0.32050  0.25800  0.00000  Biso   1.000  C 
  C107     1.0000 0.29420  0.35530  0.00000  Biso   1.000  C 
  N10      1.0000 0.21005  0.33880  0.97497  Biso   1.000  N 
  C108     1.0000 0.35530  0.29420  0.00000  Biso   1.000  C 
  H108     1.0000 0.33050  0.22490  0.00000  Biso   1.000  H 
  C109     1.0000 0.34350  0.34350  0.00000  Biso   1.000  C 
  C110     1.0000 0.38280  0.38280  0.00000  Biso   1.000  C 
  H109     1.0000 0.28510  0.38860  0.00000  Biso   1.000  H 
  H110     1.0000 0.38860  0.28510  0.00000  Biso   1.000  H 
  O51      1.0000 0.36740  0.42810  0.00000  Biso   1.000  O 
  O52      1.0000 0.42810  0.36740  0.00000  Biso   1.000  O 
  C111     1.0000 0.19020  0.36176  0.84012  Biso   1.000  C 
  C112     1.0000 0.21509  0.36400  0.92634  Biso   1.000  C 
  C113     1.0000 0.34437  0.07441  0.08635  Biso   1.000  C 
  C114     1.0000 0.30420  0.11177  0.01834  Biso   1.000  C 
  H111     1.0000 0.21455  0.40525  0.93048  Biso   1.000  H 
  C115     1.0000 0.17404  0.34542  0.89405  Biso   1.000  C 
  C116     1.0000 0.26272  0.35339  0.89715  Biso   1.000  C 
  C117     1.0000 0.24823  0.36186  0.84358  Biso   1.000  C 
  H112     1.0000 0.26198  0.39852  0.83200  Biso   1.000  H 
  H113     1.0000 0.26448  0.33292  0.81887  Biso   1.000  H 
  H114     1.0000 0.27421  0.31368  0.90199  Biso   1.000  H 
  H115     1.0000 0.29303  0.37991  0.90728  Biso   1.000  H 
  C118     1.0000 0.34830  0.08776  0.99682  Biso   1.000  C 
  H116     1.0000 0.37616  0.11433  0.98428  Biso   1.000  H 
  H117     1.0000 0.33755  0.06227  0.96550  Biso   1.000  H 
  C119     1.0000 0.37070  0.05959  0.03930  Biso   1.000  C 
  H118     1.0000 0.32149  0.04284  0.09996  Biso   1.000  H 
  C120     1.0000 0.30957  0.11618  0.07490  Biso   1.000  C 
  H119     1.0000 0.41062  0.06642  0.04108  Biso   1.000  H 
  H120     1.0000 0.36536  0.01947  0.03406  Biso   1.000  H 
  H121     1.0000 0.13813  0.36099  0.90813  Biso   1.000  H 
  H122     1.0000 0.17182  0.30344  0.89497  Biso   1.000  H 
  H123     1.0000 0.17405  0.33731  0.81070  Biso   1.000  H 
  H124     1.0000 0.32421  0.15282  0.08780  Biso   1.000  H 
  H125     1.0000 0.27274  0.11172  0.09306  Biso   1.000  H 
  H126     1.0000 0.27757  0.08014  0.01217  Biso   1.000  H 
  H127     1.0000 0.29638  0.15205  0.95269  Biso   1.000  H 
  H128     1.0000 0.19663  0.36593  0.99968  Biso   1.000  H 
  H129     1.0000 0.17646  0.40021  0.83599  Biso   1.000  H 
  H130     1.0000 0.37238  0.08518  0.11428  Biso   1.000  H 
  O53      1.0000 0.07190  0.86740  0.00000  Biso   1.000  O 
  C121     1.0000 0.11720  0.88280  0.00000  Biso   1.000  C 
  O54      1.0000 0.13260  0.92810  0.00000  Biso   1.000  O 
  C122     1.0000 0.15650  0.84350  0.00000  Biso   1.000  C 
  C123     1.0000 0.14470  0.79420  0.00000  Biso   1.000  C 
  C124     1.0000 0.20580  0.85530  0.00000  Biso   1.000  C 
  C125     1.0000 0.17950  0.75800  0.00000  Biso   1.000  C 
  H131     1.0000 0.11140  0.78510  0.00000  Biso   1.000  H 
  C126     1.0000 0.24200  0.82050  0.00000  Biso   1.000  C 
  H132     1.0000 0.21490  0.88860  0.00000  Biso   1.000  H 
  C127     1.0000 0.23070  0.76930  0.00000  Biso   1.000  C 
  C128     1.0000 0.26930  0.73070  0.00000  Biso   1.000  C 
  H133     1.0000 0.16950  0.72490  0.00000  Biso   1.000  H 
  C129     1.0000 0.25800  0.67950  0.00000  Biso   1.000  C 
  N11      1.0000 0.29402  0.84203  0.00875  Biso   1.000  N 
  C130     1.0000 0.32050  0.74200  0.00000  Biso   1.000  C 
  C131     1.0000 0.29420  0.64470  0.00000  Biso   1.000  C 
  N12      1.0000 0.21005  0.66119  0.02503  Biso   1.000  N 
  C132     1.0000 0.35530  0.70580  0.00000  Biso   1.000  C 
  H134     1.0000 0.33050  0.77510  0.00000  Biso   1.000  H 
  C133     1.0000 0.34350  0.65650  0.00000  Biso   1.000  C 
  C134     1.0000 0.38280  0.61720  0.00000  Biso   1.000  C 
  H135     1.0000 0.28510  0.61140  0.00000  Biso   1.000  H 
  H136     1.0000 0.38860  0.71490  0.00000  Biso   1.000  H 
  O55      1.0000 0.36740  0.57190  0.00000  Biso   1.000  O 
  O56      1.0000 0.42810  0.63260  0.00000  Biso   1.000  O 
  C135     1.0000 0.19020  0.63824  0.15988  Biso   1.000  C 
  C136     1.0000 0.21509  0.63600  0.07366  Biso   1.000  C 
  C137     1.0000 0.34437  0.92559  0.91365  Biso   1.000  C 
  C138     1.0000 0.30420  0.88823  0.98166  Biso   1.000  C 
  H137     1.0000 0.21455  0.59475  0.06952  Biso   1.000  H 
  C139     1.0000 0.17404  0.65458  0.10595  Biso   1.000  C 
  C140     1.0000 0.26272  0.64661  0.10285  Biso   1.000  C 
  C141     1.0000 0.24823  0.63814  0.15643  Biso   1.000  C 
  H138     1.0000 0.26198  0.60148  0.16800  Biso   1.000  H 
  H139     1.0000 0.26448  0.66708  0.18113  Biso   1.000  H 
  H140     1.0000 0.27421  0.68632  0.09801  Biso   1.000  H 
  H141     1.0000 0.29303  0.62009  0.09272  Biso   1.000  H 
  C142     1.0000 0.34830  0.91224  0.00318  Biso   1.000  C 
  H142     1.0000 0.37616  0.88567  0.01572  Biso   1.000  H 
  H143     1.0000 0.33755  0.93773  0.03450  Biso   1.000  H 
  C143     1.0000 0.37070  0.94041  0.96070  Biso   1.000  C 
  H144     1.0000 0.32149  0.95716  0.90004  Biso   1.000  H 
  C144     1.0000 0.30957  0.88382  0.92510  Biso   1.000  C 
  H145     1.0000 0.41062  0.93358  0.95892  Biso   1.000  H 
  H146     1.0000 0.36536  0.98053  0.96594  Biso   1.000  H 
  H147     1.0000 0.13813  0.63901  0.09187  Biso   1.000  H 
  H148     1.0000 0.17182  0.69656  0.10503  Biso   1.000  H 
  H149     1.0000 0.17405  0.66269  0.18930  Biso   1.000  H 
  H150     1.0000 0.32421  0.84718  0.91220  Biso   1.000  H 
  H151     1.0000 0.27274  0.88828  0.90694  Biso   1.000  H 
  H152     1.0000 0.27757  0.91986  0.98783  Biso   1.000  H 
  H153     1.0000 0.29638  0.84795  0.04731  Biso   1.000  H 
  H154     1.0000 0.19663  0.63407  0.00032  Biso   1.000  H 
  H155     1.0000 0.17646  0.59979  0.16400  Biso   1.000  H 
  H156     1.0000 0.37238  0.91482  0.88572  Biso   1.000  H 
  O57      1.0000 0.92810  0.86740  0.00000  Biso   1.000  O 
  C145     1.0000 0.88280  0.88280  0.00000  Biso   1.000  C 
  O58      1.0000 0.86740  0.92810  0.00000  Biso   1.000  O 
  C146     1.0000 0.84350  0.84350  0.00000  Biso   1.000  C 
  C147     1.0000 0.85530  0.79420  0.00000  Biso   1.000  C 
  C148     1.0000 0.79420  0.85530  0.00000  Biso   1.000  C 
  C149     1.0000 0.82050  0.75800  0.00000  Biso   1.000  C 
  H157     1.0000 0.88860  0.78510  0.00000  Biso   1.000  H 
  C150     1.0000 0.75800  0.82050  0.00000  Biso   1.000  C 
  H158     1.0000 0.78510  0.88860  0.00000  Biso   1.000  H 
  C151     1.0000 0.76930  0.76930  0.00000  Biso   1.000  C 
  C152     1.0000 0.73070  0.73070  0.00000  Biso   1.000  C 
  H159     1.0000 0.83050  0.72490  0.00000  Biso   1.000  H 
  C153     1.0000 0.74200  0.67950  0.00000  Biso   1.000  C 
  N13      1.0000 0.70598  0.84203  0.99126  Biso   1.000  N 
  C154     1.0000 0.67950  0.74200  0.00000  Biso   1.000  C 
  C155     1.0000 0.70580  0.64470  0.00000  Biso   1.000  C 
  N14      1.0000 0.78995  0.66119  0.97497  Biso   1.000  N 
  C156     1.0000 0.64470  0.70580  0.00000  Biso   1.000  C 
  H160     1.0000 0.66950  0.77510  0.00000  Biso   1.000  H 
  C157     1.0000 0.65650  0.65650  0.00000  Biso   1.000  C 
  C158     1.0000 0.61720  0.61720  0.00000  Biso   1.000  C 
  H161     1.0000 0.71490  0.61140  0.00000  Biso   1.000  H 
  H162     1.0000 0.61140  0.71490  0.00000  Biso   1.000  H 
  O59      1.0000 0.63260  0.57190  0.00000  Biso   1.000  O 
  O60      1.0000 0.57190  0.63260  0.00000  Biso   1.000  O 
  C159     1.0000 0.80980  0.63824  0.84012  Biso   1.000  C 
  C160     1.0000 0.78491  0.63600  0.92634  Biso   1.000  C 
  C161     1.0000 0.65563  0.92559  0.08635  Biso   1.000  C 
  C162     1.0000 0.69580  0.88823  0.01834  Biso   1.000  C 
  H163     1.0000 0.78545  0.59475  0.93048  Biso   1.000  H 
  C163     1.0000 0.82596  0.65458  0.89405  Biso   1.000  C 
  C164     1.0000 0.73728  0.64661  0.89715  Biso   1.000  C 
  C165     1.0000 0.75177  0.63814  0.84358  Biso   1.000  C 
  H164     1.0000 0.73802  0.60148  0.83200  Biso   1.000  H 
  H165     1.0000 0.73552  0.66708  0.81887  Biso   1.000  H 
  H166     1.0000 0.72579  0.68632  0.90199  Biso   1.000  H 
  H167     1.0000 0.70697  0.62009  0.90728  Biso   1.000  H 
  C166     1.0000 0.65170  0.91224  0.99682  Biso   1.000  C 
  H168     1.0000 0.62384  0.88567  0.98428  Biso   1.000  H 
  H169     1.0000 0.66244  0.93773  0.96550  Biso   1.000  H 
  C167     1.0000 0.62930  0.94041  0.03930  Biso   1.000  C 
  H170     1.0000 0.67851  0.95716  0.09996  Biso   1.000  H 
  C168     1.0000 0.69043  0.88382  0.07490  Biso   1.000  C 
  H171     1.0000 0.58938  0.93358  0.04108  Biso   1.000  H 
  H172     1.0000 0.63464  0.98053  0.03406  Biso   1.000  H 
  H173     1.0000 0.86187  0.63901  0.90813  Biso   1.000  H 
  H174     1.0000 0.82818  0.69656  0.89497  Biso   1.000  H 
  H175     1.0000 0.82595  0.66269  0.81070  Biso   1.000  H 
  H176     1.0000 0.67580  0.84718  0.08780  Biso   1.000  H 
  H177     1.0000 0.72726  0.88828  0.09306  Biso   1.000  H 
  H178     1.0000 0.72243  0.91986  0.01217  Biso   1.000  H 
  H179     1.0000 0.70362  0.84795  0.95269  Biso   1.000  H 
  H180     1.0000 0.80337  0.63407  0.99968  Biso   1.000  H 
  H181     1.0000 0.82354  0.59979  0.83599  Biso   1.000  H 
  H182     1.0000 0.62762  0.91482  0.11428  Biso   1.000  H 
  O61      1.0000 0.92810  0.13260  0.00000  Biso   1.000  O 
  C169     1.0000 0.88280  0.11720  0.00000  Biso   1.000  C 
  O62      1.0000 0.86740  0.07190  0.00000  Biso   1.000  O 
  C170     1.0000 0.84350  0.15650  0.00000  Biso   1.000  C 
  C171     1.0000 0.85530  0.20580  0.00000  Biso   1.000  C 
  C172     1.0000 0.79420  0.14470  0.00000  Biso   1.000  C 
  C173     1.0000 0.82050  0.24200  0.00000  Biso   1.000  C 
  H183     1.0000 0.88860  0.21490  0.00000  Biso   1.000  H 
  C174     1.0000 0.75800  0.17950  0.00000  Biso   1.000  C 
  H184     1.0000 0.78510  0.11140  0.00000  Biso   1.000  H 
  C175     1.0000 0.76930  0.23070  0.00000  Biso   1.000  C 
  C176     1.0000 0.73070  0.26930  0.00000  Biso   1.000  C 
  H185     1.0000 0.83050  0.27510  0.00000  Biso   1.000  H 
  C177     1.0000 0.74200  0.32050  0.00000  Biso   1.000  C 
  N15      1.0000 0.70598  0.15797  0.00875  Biso   1.000  N 
  C178     1.0000 0.67950  0.25800  0.00000  Biso   1.000  C 
  C179     1.0000 0.70580  0.35530  0.00000  Biso   1.000  C 
  N16      1.0000 0.78995  0.33880  0.02503  Biso   1.000  N 
  C180     1.0000 0.64470  0.29420  0.00000  Biso   1.000  C 
  H186     1.0000 0.66950  0.22490  0.00000  Biso   1.000  H 
  C181     1.0000 0.65650  0.34350  0.00000  Biso   1.000  C 
  C182     1.0000 0.61720  0.38280  0.00000  Biso   1.000  C 
  H187     1.0000 0.71490  0.38860  0.00000  Biso   1.000  H 
  H188     1.0000 0.61140  0.28510  0.00000  Biso   1.000  H 
  O63      1.0000 0.63260  0.42810  0.00000  Biso   1.000  O 
  O64      1.0000 0.57190  0.36740  0.00000  Biso   1.000  O 
  C183     1.0000 0.80980  0.36176  0.15988  Biso   1.000  C 
  C184     1.0000 0.78491  0.36400  0.07366  Biso   1.000  C 
  C185     1.0000 0.65563  0.07441  0.91365  Biso   1.000  C 
  C186     1.0000 0.69580  0.11177  0.98166  Biso   1.000  C 
  H189     1.0000 0.78545  0.40525  0.06952  Biso   1.000  H 
  C187     1.0000 0.82596  0.34542  0.10595  Biso   1.000  C 
  C188     1.0000 0.73728  0.35339  0.10285  Biso   1.000  C 
  C189     1.0000 0.75177  0.36186  0.15643  Biso   1.000  C 
  H190     1.0000 0.73802  0.39852  0.16800  Biso   1.000  H 
  H191     1.0000 0.73552  0.33292  0.18113  Biso   1.000  H 
  H192     1.0000 0.72579  0.31368  0.09801  Biso   1.000  H 
  H193     1.0000 0.70697  0.37991  0.09272  Biso   1.000  H 
  C190     1.0000 0.65170  0.08776  0.00318  Biso   1.000  C 
  H194     1.0000 0.62384  0.11433  0.01572  Biso   1.000  H 
  H195     1.0000 0.66244  0.06227  0.03450  Biso   1.000  H 
  C191     1.0000 0.62930  0.05959  0.96070  Biso   1.000  C 
  H196     1.0000 0.67851  0.04284  0.90004  Biso   1.000  H 
  C192     1.0000 0.69043  0.11618  0.92510  Biso   1.000  C 
  H197     1.0000 0.58938  0.06642  0.95892  Biso   1.000  H 
  H198     1.0000 0.63464  0.01947  0.96594  Biso   1.000  H 
  H199     1.0000 0.86187  0.36099  0.09187  Biso   1.000  H 
  H200     1.0000 0.82818  0.30344  0.10503  Biso   1.000  H 
  H201     1.0000 0.82595  0.33731  0.18930  Biso   1.000  H 
  H202     1.0000 0.67580  0.15282  0.91220  Biso   1.000  H 
  H203     1.0000 0.72726  0.11172  0.90694  Biso   1.000  H 
  H204     1.0000 0.72243  0.08014  0.98783  Biso   1.000  H 
  H205     1.0000 0.70362  0.15205  0.04731  Biso   1.000  H 
  H206     1.0000 0.80337  0.36593  0.00032  Biso   1.000  H 
  H207     1.0000 0.82354  0.40021  0.16400  Biso   1.000  H 
  H208     1.0000 0.62762  0.08518  0.88572  Biso   1.000  H 
  O65      1.0000 0.00000  0.07190  0.13260  Biso   1.000  O 
  C193     1.0000 0.00000  0.11720  0.11720  Biso   1.000  C 
  O66      1.0000 0.00000  0.13260  0.07190  Biso   1.000  O 
  C194     1.0000 0.00000  0.15650  0.15650  Biso   1.000  C 
  C195     1.0000 0.00000  0.14470  0.20580  Biso   1.000  C 
  C196     1.0000 0.00000  0.20580  0.14470  Biso   1.000  C 
  C197     1.0000 0.00000  0.17950  0.24200  Biso   1.000  C 
  H209     1.0000 0.00000  0.11140  0.21490  Biso   1.000  H 
  C198     1.0000 0.00000  0.24200  0.17950  Biso   1.000  C 
  H210     1.0000 0.00000  0.21490  0.11140  Biso   1.000  H 
  C199     1.0000 0.00000  0.23070  0.23070  Biso   1.000  C 
  C200     1.0000 0.00000  0.26930  0.26930  Biso   1.000  C 
  H211     1.0000 0.00000  0.16950  0.27510  Biso   1.000  H 
  C201     1.0000 0.00000  0.25800  0.32050  Biso   1.000  C 
  N17      1.0000 0.98018  0.29179  0.16054  Biso   1.000  N 
  C202     1.0000 0.00000  0.32050  0.25800  Biso   1.000  C 
  C203     1.0000 0.00000  0.29420  0.35530  Biso   1.000  C 
  N18      1.0000 0.99149  0.20651  0.34078  Biso   1.000  N 
  C204     1.0000 0.00000  0.35530  0.29420  Biso   1.000  C 
  H212     1.0000 0.00000  0.33050  0.22490  Biso   1.000  H 
  C205     1.0000 0.00000  0.34350  0.34350  Biso   1.000  C 
  C206     1.0000 0.00000  0.38280  0.38280  Biso   1.000  C 
  H213     1.0000 0.00000  0.28510  0.38860  Biso   1.000  H 
  H214     1.0000 0.00000  0.38860  0.28510  Biso   1.000  H 
  O67      1.0000 0.00000  0.36740  0.42810  Biso   1.000  O 
  O68      1.0000 0.00000  0.42810  0.36740  Biso   1.000  O 
  C207     1.0000 0.97632  0.14699  0.43866  Biso   1.000  C 
  C208     1.0000 0.94800  0.20314  0.37505  Biso   1.000  C 
  C209     1.0000 0.06503  0.33905  0.06087  Biso   1.000  C 
  C210     1.0000 0.99882  0.31097  0.11171  Biso   1.000  C 
  H215     1.0000 0.92203  0.23435  0.36795  Biso   1.000  H 
  C211     1.0000 0.96605  0.20190  0.42987  Biso   1.000  C 
  C212     1.0000 0.91995  0.15527  0.36803  Biso   1.000  C 
  C213     1.0000 0.95268  0.12007  0.39529  Biso   1.000  C 
  H216     1.0000 0.93554  0.08558  0.40873  Biso   1.000  H 
  H217     1.0000 0.98175  0.11106  0.36827  Biso   1.000  H 
  H218     1.0000 0.91367  0.14338  0.32887  Biso   1.000  H 
  H219     1.0000 0.88397  0.15935  0.38788  Biso   1.000  H 
  C214     1.0000 0.99543  0.36708  0.11175  Biso   1.000  C 
  H220     1.0000 0.01258  0.38196  0.14561  Biso   1.000  H 
  H221     1.0000 0.95686  0.38012  0.10773  Biso   1.000  H 
  C215     1.0000 0.02414  0.37852  0.06573  Biso   1.000  C 
  H222     1.0000 0.06329  0.31878  0.02461  Biso   1.000  H 
  C216     1.0000 0.05335  0.30365  0.10032  Biso   1.000  C 
  H223     1.0000 0.03416  0.41824  0.06519  Biso   1.000  H 
  H224     1.0000 0.99751  0.37402  0.03574  Biso   1.000  H 
  H225     1.0000 0.93762  0.21517  0.45619  Biso   1.000  H 
  H226     1.0000 0.00093  0.22236  0.43576  Biso   1.000  H 
  H227     1.0000 0.01687  0.13830  0.43871  Biso   1.000  H 
  H228     1.0000 0.07312  0.30894  0.13630  Biso   1.000  H 
  H229     1.0000 0.05953  0.26424  0.08587  Biso   1.000  H 
  H230     1.0000 0.97596  0.29572  0.08069  Biso   1.000  H 
  H231     1.0000 0.94179  0.28798  0.15826  Biso   1.000  H 
  H232     1.0000 0.02479  0.19689  0.35835  Biso   1.000  H 
  H233     1.0000 0.96063  0.13462  0.47436  Biso   1.000  H 
  H234     1.0000 0.10238  0.35048  0.06726  Biso   1.000  H 
  O69      1.0000 0.00000  0.07190  0.86740  Biso   1.000  O 
  C217     1.0000 0.00000  0.11720  0.88280  Biso   1.000  C 
  O70      1.0000 0.00000  0.13260  0.92810  Biso   1.000  O 
  C218     1.0000 0.00000  0.15650  0.84350  Biso   1.000  C 
  C219     1.0000 0.00000  0.14470  0.79420  Biso   1.000  C 
  C220     1.0000 0.00000  0.20580  0.85530  Biso   1.000  C 
  C221     1.0000 0.00000  0.17950  0.75800  Biso   1.000  C 
  H235     1.0000 0.00000  0.11140  0.78510  Biso   1.000  H 
  C222     1.0000 0.00000  0.24200  0.82050  Biso   1.000  C 
  H236     1.0000 0.00000  0.21490  0.88860  Biso   1.000  H 
  C223     1.0000 0.00000  0.23070  0.76930  Biso   1.000  C 
  C224     1.0000 0.00000  0.26930  0.73070  Biso   1.000  C 
  H237     1.0000 0.00000  0.16950  0.72490  Biso   1.000  H 
  C225     1.0000 0.00000  0.25800  0.67950  Biso   1.000  C 
  N19      1.0000 0.01982  0.29179  0.83946  Biso   1.000  N 
  C226     1.0000 0.00000  0.32050  0.74200  Biso   1.000  C 
  C227     1.0000 0.00000  0.29420  0.64470  Biso   1.000  C 
  N20      1.0000 0.00852  0.20651  0.65922  Biso   1.000  N 
  C228     1.0000 0.00000  0.35530  0.70580  Biso   1.000  C 
  H238     1.0000 0.00000  0.33050  0.77510  Biso   1.000  H 
  C229     1.0000 0.00000  0.34350  0.65650  Biso   1.000  C 
  C230     1.0000 0.00000  0.38280  0.61720  Biso   1.000  C 
  H239     1.0000 0.00000  0.28510  0.61140  Biso   1.000  H 
  H240     1.0000 0.00000  0.38860  0.71490  Biso   1.000  H 
  O71      1.0000 0.00000  0.36740  0.57190  Biso   1.000  O 
  O72      1.0000 0.00000  0.42810  0.63260  Biso   1.000  O 
  C231     1.0000 0.02368  0.14699  0.56134  Biso   1.000  C 
  C232     1.0000 0.05199  0.20314  0.62495  Biso   1.000  C 
  C233     1.0000 0.93497  0.33905  0.93912  Biso   1.000  C 
  C234     1.0000 0.00118  0.31097  0.88830  Biso   1.000  C 
  H241     1.0000 0.07798  0.23435  0.63205  Biso   1.000  H 
  C235     1.0000 0.03395  0.20190  0.57013  Biso   1.000  C 
  C236     1.0000 0.08005  0.15527  0.63197  Biso   1.000  C 
  C237     1.0000 0.04732  0.12007  0.60471  Biso   1.000  C 
  H242     1.0000 0.06446  0.08558  0.59127  Biso   1.000  H 
  H243     1.0000 0.01825  0.11106  0.63173  Biso   1.000  H 
  H244     1.0000 0.08633  0.14338  0.67113  Biso   1.000  H 
  H245     1.0000 0.11603  0.15935  0.61212  Biso   1.000  H 
  C238     1.0000 0.00457  0.36708  0.88825  Biso   1.000  C 
  H246     1.0000 0.98742  0.38196  0.85439  Biso   1.000  H 
  H247     1.0000 0.04314  0.38012  0.89227  Biso   1.000  H 
  C239     1.0000 0.97586  0.37852  0.93427  Biso   1.000  C 
  H248     1.0000 0.93671  0.31878  0.97539  Biso   1.000  H 
  C240     1.0000 0.94665  0.30365  0.89968  Biso   1.000  C 
  H249     1.0000 0.96584  0.41824  0.93481  Biso   1.000  H 
  H250     1.0000 0.00249  0.37402  0.96426  Biso   1.000  H 
  H251     1.0000 0.06238  0.21517  0.54381  Biso   1.000  H 
  H252     1.0000 0.99907  0.22236  0.56424  Biso   1.000  H 
  H253     1.0000 0.98312  0.13830  0.56129  Biso   1.000  H 
  H254     1.0000 0.92688  0.30894  0.86370  Biso   1.000  H 
  H255     1.0000 0.94047  0.26424  0.91412  Biso   1.000  H 
  H256     1.0000 0.02404  0.29572  0.91932  Biso   1.000  H 
  H257     1.0000 0.05821  0.28798  0.84174  Biso   1.000  H 
  H258     1.0000 0.97521  0.19689  0.64165  Biso   1.000  H 
  H259     1.0000 0.03938  0.13462  0.52564  Biso   1.000  H 
  H260     1.0000 0.89762  0.35048  0.93274  Biso   1.000  H 
  O73      1.0000 0.00000  0.92810  0.86740  Biso   1.000  O 
  C241     1.0000 0.00000  0.88280  0.88280  Biso   1.000  C 
  O74      1.0000 0.00000  0.86740  0.92810  Biso   1.000  O 
  C242     1.0000 0.00000  0.84350  0.84350  Biso   1.000  C 
  C243     1.0000 0.00000  0.85530  0.79420  Biso   1.000  C 
  C244     1.0000 0.00000  0.79420  0.85530  Biso   1.000  C 
  C245     1.0000 0.00000  0.82050  0.75800  Biso   1.000  C 
  H261     1.0000 0.00000  0.88860  0.78510  Biso   1.000  H 
  C246     1.0000 0.00000  0.75800  0.82050  Biso   1.000  C 
  H262     1.0000 0.00000  0.78510  0.88860  Biso   1.000  H 
  C247     1.0000 0.00000  0.76930  0.76930  Biso   1.000  C 
  C248     1.0000 0.00000  0.73070  0.73070  Biso   1.000  C 
  H263     1.0000 0.00000  0.83050  0.72490  Biso   1.000  H 
  C249     1.0000 0.00000  0.74200  0.67950  Biso   1.000  C 
  N21      1.0000 0.98018  0.70821  0.83946  Biso   1.000  N 
  C250     1.0000 0.00000  0.67950  0.74200  Biso   1.000  C 
  C251     1.0000 0.00000  0.70580  0.64470  Biso   1.000  C 
  N22      1.0000 0.99149  0.79349  0.65922  Biso   1.000  N 
  C252     1.0000 0.00000  0.64470  0.70580  Biso   1.000  C 
  H264     1.0000 0.00000  0.66950  0.77510  Biso   1.000  H 
  C253     1.0000 0.00000  0.65650  0.65650  Biso   1.000  C 
  C254     1.0000 0.00000  0.61720  0.61720  Biso   1.000  C 
  H265     1.0000 0.00000  0.71490  0.61140  Biso   1.000  H 
  H266     1.0000 0.00000  0.61140  0.71490  Biso   1.000  H 
  O75      1.0000 0.00000  0.63260  0.57190  Biso   1.000  O 
  O76      1.0000 0.00000  0.57190  0.63260  Biso   1.000  O 
  C255     1.0000 0.97632  0.85301  0.56134  Biso   1.000  C 
  C256     1.0000 0.94800  0.79686  0.62495  Biso   1.000  C 
  C257     1.0000 0.06503  0.66095  0.93912  Biso   1.000  C 
  C258     1.0000 0.99882  0.68902  0.88830  Biso   1.000  C 
  H267     1.0000 0.92203  0.76565  0.63205  Biso   1.000  H 
  C259     1.0000 0.96605  0.79810  0.57013  Biso   1.000  C 
  C260     1.0000 0.91995  0.84473  0.63197  Biso   1.000  C 
  C261     1.0000 0.95268  0.87993  0.60471  Biso   1.000  C 
  H268     1.0000 0.93554  0.91441  0.59127  Biso   1.000  H 
  H269     1.0000 0.98175  0.88894  0.63173  Biso   1.000  H 
  H270     1.0000 0.91367  0.85662  0.67113  Biso   1.000  H 
  H271     1.0000 0.88397  0.84065  0.61212  Biso   1.000  H 
  C262     1.0000 0.99543  0.63292  0.88825  Biso   1.000  C 
  H272     1.0000 0.01258  0.61804  0.85439  Biso   1.000  H 
  H273     1.0000 0.95686  0.61988  0.89227  Biso   1.000  H 
  C263     1.0000 0.02414  0.62148  0.93427  Biso   1.000  C 
  H274     1.0000 0.06329  0.68122  0.97539  Biso   1.000  H 
  C264     1.0000 0.05335  0.69635  0.89968  Biso   1.000  C 
  H275     1.0000 0.03416  0.58176  0.93481  Biso   1.000  H 
  H276     1.0000 0.99751  0.62598  0.96426  Biso   1.000  H 
  H277     1.0000 0.93762  0.78483  0.54381  Biso   1.000  H 
  H278     1.0000 0.00093  0.77764  0.56424  Biso   1.000  H 
  H279     1.0000 0.01687  0.86170  0.56129  Biso   1.000  H 
  H280     1.0000 0.07312  0.69106  0.86370  Biso   1.000  H 
  H281     1.0000 0.05953  0.73576  0.91412  Biso   1.000  H 
  H282     1.0000 0.97596  0.70428  0.91932  Biso   1.000  H 
  H283     1.0000 0.94179  0.71202  0.84174  Biso   1.000  H 
  H284     1.0000 0.02479  0.80311  0.64165  Biso   1.000  H 
  H285     1.0000 0.96063  0.86539  0.52564  Biso   1.000  H 
  H286     1.0000 0.10238  0.64952  0.93274  Biso   1.000  H 
  O77      1.0000 0.00000  0.92810  0.13260  Biso   1.000  O 
  C265     1.0000 0.00000  0.88280  0.11720  Biso   1.000  C 
  O78      1.0000 0.00000  0.86740  0.07190  Biso   1.000  O 
  C266     1.0000 0.00000  0.84350  0.15650  Biso   1.000  C 
  C267     1.0000 0.00000  0.85530  0.20580  Biso   1.000  C 
  C268     1.0000 0.00000  0.79420  0.14470  Biso   1.000  C 
  C269     1.0000 0.00000  0.82050  0.24200  Biso   1.000  C 
  H287     1.0000 0.00000  0.88860  0.21490  Biso   1.000  H 
  C270     1.0000 0.00000  0.75800  0.17950  Biso   1.000  C 
  H288     1.0000 0.00000  0.78510  0.11140  Biso   1.000  H 
  C271     1.0000 0.00000  0.76930  0.23070  Biso   1.000  C 
  C272     1.0000 0.00000  0.73070  0.26930  Biso   1.000  C 
  H289     1.0000 0.00000  0.83050  0.27510  Biso   1.000  H 
  C273     1.0000 0.00000  0.74200  0.32050  Biso   1.000  C 
  N23      1.0000 0.01982  0.70821  0.16054  Biso   1.000  N 
  C274     1.0000 0.00000  0.67950  0.25800  Biso   1.000  C 
  C275     1.0000 0.00000  0.70580  0.35530  Biso   1.000  C 
  N24      1.0000 0.00852  0.79349  0.34078  Biso   1.000  N 
  C276     1.0000 0.00000  0.64470  0.29420  Biso   1.000  C 
  H290     1.0000 0.00000  0.66950  0.22490  Biso   1.000  H 
  C277     1.0000 0.00000  0.65650  0.34350  Biso   1.000  C 
  C278     1.0000 0.00000  0.61720  0.38280  Biso   1.000  C 
  H291     1.0000 0.00000  0.71490  0.38860  Biso   1.000  H 
  H292     1.0000 0.00000  0.61140  0.28510  Biso   1.000  H 
  O79      1.0000 0.00000  0.63260  0.42810  Biso   1.000  O 
  O80      1.0000 0.00000  0.57190  0.36740  Biso   1.000  O 
  C279     1.0000 0.02368  0.85301  0.43866  Biso   1.000  C 
  C280     1.0000 0.05199  0.79686  0.37505  Biso   1.000  C 
  C281     1.0000 0.93497  0.66095  0.06087  Biso   1.000  C 
  C282     1.0000 0.00118  0.68902  0.11171  Biso   1.000  C 
  H293     1.0000 0.07798  0.76565  0.36795  Biso   1.000  H 
  C283     1.0000 0.03395  0.79810  0.42987  Biso   1.000  C 
  C284     1.0000 0.08005  0.84473  0.36803  Biso   1.000  C 
  C285     1.0000 0.04732  0.87993  0.39529  Biso   1.000  C 
  H294     1.0000 0.06446  0.91441  0.40873  Biso   1.000  H 
  H295     1.0000 0.01825  0.88894  0.36827  Biso   1.000  H 
  H296     1.0000 0.08633  0.85662  0.32887  Biso   1.000  H 
  H297     1.0000 0.11603  0.84065  0.38788  Biso   1.000  H 
  C286     1.0000 0.00457  0.63292  0.11175  Biso   1.000  C 
  H298     1.0000 0.98742  0.61804  0.14561  Biso   1.000  H 
  H299     1.0000 0.04314  0.61988  0.10773  Biso   1.000  H 
  C287     1.0000 0.97586  0.62148  0.06573  Biso   1.000  C 
  H300     1.0000 0.93671  0.68122  0.02461  Biso   1.000  H 
  C288     1.0000 0.94665  0.69635  0.10032  Biso   1.000  C 
  H301     1.0000 0.96584  0.58176  0.06519  Biso   1.000  H 
  H302     1.0000 0.00249  0.62598  0.03574  Biso   1.000  H 
  H303     1.0000 0.06238  0.78483  0.45619  Biso   1.000  H 
  H304     1.0000 0.99907  0.77764  0.43576  Biso   1.000  H 
  H305     1.0000 0.98312  0.86170  0.43871  Biso   1.000  H 
  H306     1.0000 0.92688  0.69106  0.13630  Biso   1.000  H 
  H307     1.0000 0.94047  0.73576  0.08587  Biso   1.000  H 
  H308     1.0000 0.02404  0.70428  0.08069  Biso   1.000  H 
  H309     1.0000 0.05821  0.71202  0.15826  Biso   1.000  H 
  H310     1.0000 0.97521  0.80311  0.35835  Biso   1.000  H 
  H311     1.0000 0.03938  0.86539  0.47436  Biso   1.000  H 
  H312     1.0000 0.89762  0.64952  0.06726  Biso   1.000  H 
  O81      1.0000 0.13260  0.50000  0.57190  Biso   1.000  O 
  C289     1.0000 0.11720  0.50000  0.61720  Biso   1.000  C 
  O82      1.0000 0.07190  0.50000  0.63260  Biso   1.000  O 
  C290     1.0000 0.15650  0.50000  0.65650  Biso   1.000  C 
  C291     1.0000 0.20580  0.50000  0.64470  Biso   1.000  C 
  C292     1.0000 0.14470  0.50000  0.70580  Biso   1.000  C 
  C293     1.0000 0.24200  0.50000  0.67950  Biso   1.000  C 
  H313     1.0000 0.21490  0.50000  0.61140  Biso   1.000  H 
  C294     1.0000 0.17950  0.50000  0.74200  Biso   1.000  C 
  H314     1.0000 0.11140  0.50000  0.71490  Biso   1.000  H 
  C295     1.0000 0.23070  0.50000  0.73070  Biso   1.000  C 
  C296     1.0000 0.26930  0.50000  0.76930  Biso   1.000  C 
  H315     1.0000 0.27510  0.50000  0.66950  Biso   1.000  H 
  C297     1.0000 0.32050  0.50000  0.75800  Biso   1.000  C 
  N25      1.0000 0.16039  0.51307  0.79351  Biso   1.000  N 
  C298     1.0000 0.25800  0.50000  0.82050  Biso   1.000  C 
  C299     1.0000 0.35530  0.50000  0.79420  Biso   1.000  C 
  N26      1.0000 0.33869  0.47449  0.71013  Biso   1.000  N 
  C300     1.0000 0.29420  0.50000  0.85530  Biso   1.000  C 
  H316     1.0000 0.22490  0.50000  0.83050  Biso   1.000  H 
  C301     1.0000 0.34350  0.50000  0.84350  Biso   1.000  C 
  C302     1.0000 0.38280  0.50000  0.88280  Biso   1.000  C 
  H317     1.0000 0.38860  0.50000  0.78510  Biso   1.000  H 
  H318     1.0000 0.28510  0.50000  0.88860  Biso   1.000  H 
  O83      1.0000 0.42810  0.50000  0.86740  Biso   1.000  O 
  O84      1.0000 0.36740  0.50000  0.92810  Biso   1.000  O 
  C303     1.0000 0.37474  0.34088  0.69362  Biso   1.000  C 
  C304     1.0000 0.36274  0.42700  0.72123  Biso   1.000  C 
  C305     1.0000 0.18517  0.60239  0.86909  Biso   1.000  C 
  C306     1.0000 0.14253  0.56371  0.79871  Biso   1.000  C 
  H319     1.0000 0.39680  0.43306  0.74389  Biso   1.000  H 
  C307     1.0000 0.37956  0.39747  0.67532  Biso   1.000  C 
  C308     1.0000 0.33102  0.39169  0.75014  Biso   1.000  C 
  C309     1.0000 0.36007  0.34514  0.74793  Biso   1.000  C 
  H320     1.0000 0.39327  0.34765  0.77300  Biso   1.000  H 
  H321     1.0000 0.33627  0.31350  0.75998  Biso   1.000  H 
  H322     1.0000 0.29575  0.38753  0.72836  Biso   1.000  H 
  H323     1.0000 0.32320  0.40403  0.78749  Biso   1.000  H 
  C310     1.0000 0.10595  0.56382  0.84120  Biso   1.000  C 
  H324     1.0000 0.08147  0.52952  0.84283  Biso   1.000  H 
  H325     1.0000 0.08244  0.59524  0.83348  Biso   1.000  H 
  C311     1.0000 0.14171  0.56814  0.88792  Biso   1.000  C 
  H326     1.0000 0.17565  0.64246  0.87915  Biso   1.000  H 
  C312     1.0000 0.18582  0.59933  0.81176  Biso   1.000  C 
  H327     1.0000 0.15247  0.52903  0.89831  Biso   1.000  H 
  H328     1.0000 0.12204  0.58023  0.91945  Biso   1.000  H 
  H329     1.0000 0.41792  0.40807  0.66367  Biso   1.000  H 
  H330     1.0000 0.35328  0.40223  0.64253  Biso   1.000  H 
  H331     1.0000 0.34691  0.31867  0.67141  Biso   1.000  H 
  H332     1.0000 0.22162  0.58800  0.79373  Biso   1.000  H 
  H333     1.0000 0.17581  0.63699  0.80027  Biso   1.000  H 
  H334     1.0000 0.12576  0.57614  0.76208  Biso   1.000  H 
  H335     1.0000 0.13384  0.48577  0.80091  Biso   1.000  H 
  H336     1.0000 0.36731  0.49758  0.69523  Biso   1.000  H 
  H337     1.0000 0.41130  0.32246  0.68908  Biso   1.000  H 
  H338     1.0000 0.22098  0.58881  0.88358  Biso   1.000  H 
  O85      1.0000 0.86740  0.50000  0.57190  Biso   1.000  O 
  C313     1.0000 0.88280  0.50000  0.61720  Biso   1.000  C 
  O86      1.0000 0.92810  0.50000  0.63260  Biso   1.000  O 
  C314     1.0000 0.84350  0.50000  0.65650  Biso   1.000  C 
  C315     1.0000 0.79420  0.50000  0.64470  Biso   1.000  C 
  C316     1.0000 0.85530  0.50000  0.70580  Biso   1.000  C 
  C317     1.0000 0.75800  0.50000  0.67950  Biso   1.000  C 
  H339     1.0000 0.78510  0.50000  0.61140  Biso   1.000  H 
  C318     1.0000 0.82050  0.50000  0.74200  Biso   1.000  C 
  H340     1.0000 0.88860  0.50000  0.71490  Biso   1.000  H 
  C319     1.0000 0.76930  0.50000  0.73070  Biso   1.000  C 
  C320     1.0000 0.73070  0.50000  0.76930  Biso   1.000  C 
  H341     1.0000 0.72490  0.50000  0.66950  Biso   1.000  H 
  C321     1.0000 0.67950  0.50000  0.75800  Biso   1.000  C 
  N27      1.0000 0.83961  0.48693  0.79351  Biso   1.000  N 
  C322     1.0000 0.74200  0.50000  0.82050  Biso   1.000  C 
  C323     1.0000 0.64470  0.50000  0.79420  Biso   1.000  C 
  N28      1.0000 0.66131  0.52551  0.71013  Biso   1.000  N 
  C324     1.0000 0.70580  0.50000  0.85530  Biso   1.000  C 
  H342     1.0000 0.77510  0.50000  0.83050  Biso   1.000  H 
  C325     1.0000 0.65650  0.50000  0.84350  Biso   1.000  C 
  C326     1.0000 0.61720  0.50000  0.88280  Biso   1.000  C 
  H343     1.0000 0.61140  0.50000  0.78510  Biso   1.000  H 
  H344     1.0000 0.71490  0.50000  0.88860  Biso   1.000  H 
  O87      1.0000 0.57190  0.50000  0.86740  Biso   1.000  O 
  O88      1.0000 0.63260  0.50000  0.92810  Biso   1.000  O 
  C327     1.0000 0.62526  0.65912  0.69362  Biso   1.000  C 
  C328     1.0000 0.63726  0.57300  0.72123  Biso   1.000  C 
  C329     1.0000 0.81483  0.39761  0.86909  Biso   1.000  C 
  C330     1.0000 0.85747  0.43629  0.79871  Biso   1.000  C 
  H345     1.0000 0.60320  0.56694  0.74389  Biso   1.000  H 
  C331     1.0000 0.62044  0.60253  0.67532  Biso   1.000  C 
  C332     1.0000 0.66898  0.60831  0.75014  Biso   1.000  C 
  C333     1.0000 0.63993  0.65486  0.74793  Biso   1.000  C 
  H346     1.0000 0.60673  0.65235  0.77300  Biso   1.000  H 
  H347     1.0000 0.66373  0.68650  0.75998  Biso   1.000  H 
  H348     1.0000 0.70425  0.61247  0.72836  Biso   1.000  H 
  H349     1.0000 0.67680  0.59597  0.78749  Biso   1.000  H 
  C334     1.0000 0.89405  0.43618  0.84120  Biso   1.000  C 
  H350     1.0000 0.91853  0.47048  0.84283  Biso   1.000  H 
  H351     1.0000 0.91756  0.40476  0.83348  Biso   1.000  H 
  C335     1.0000 0.85829  0.43186  0.88792  Biso   1.000  C 
  H352     1.0000 0.82435  0.35754  0.87915  Biso   1.000  H 
  C336     1.0000 0.81418  0.40067  0.81176  Biso   1.000  C 
  H353     1.0000 0.84753  0.47097  0.89831  Biso   1.000  H 
  H354     1.0000 0.87796  0.41977  0.91945  Biso   1.000  H 
  H355     1.0000 0.58208  0.59193  0.66367  Biso   1.000  H 
  H356     1.0000 0.64672  0.59777  0.64253  Biso   1.000  H 
  H357     1.0000 0.65309  0.68133  0.67141  Biso   1.000  H 
  H358     1.0000 0.77838  0.41200  0.79373  Biso   1.000  H 
  H359     1.0000 0.82419  0.36301  0.80027  Biso   1.000  H 
  H360     1.0000 0.87424  0.42386  0.76208  Biso   1.000  H 
  H361     1.0000 0.86616  0.51423  0.80091  Biso   1.000  H 
  H362     1.0000 0.63269  0.50242  0.69523  Biso   1.000  H 
  H363     1.0000 0.58870  0.67754  0.68908  Biso   1.000  H 
  H364     1.0000 0.77902  0.41119  0.88358  Biso   1.000  H 
  O89      1.0000 0.86740  0.50000  0.42810  Biso   1.000  O 
  C337     1.0000 0.88280  0.50000  0.38280  Biso   1.000  C 
  O90      1.0000 0.92810  0.50000  0.36740  Biso   1.000  O 
  C338     1.0000 0.84350  0.50000  0.34350  Biso   1.000  C 
  C339     1.0000 0.79420  0.50000  0.35530  Biso   1.000  C 
  C340     1.0000 0.85530  0.50000  0.29420  Biso   1.000  C 
  C341     1.0000 0.75800  0.50000  0.32050  Biso   1.000  C 
  H365     1.0000 0.78510  0.50000  0.38860  Biso   1.000  H 
  C342     1.0000 0.82050  0.50000  0.25800  Biso   1.000  C 
  H366     1.0000 0.88860  0.50000  0.28510  Biso   1.000  H 
  C343     1.0000 0.76930  0.50000  0.26930  Biso   1.000  C 
  C344     1.0000 0.73070  0.50000  0.23070  Biso   1.000  C 
  H367     1.0000 0.72490  0.50000  0.33050  Biso   1.000  H 
  C345     1.0000 0.67950  0.50000  0.24200  Biso   1.000  C 
  N29      1.0000 0.83961  0.51307  0.20649  Biso   1.000  N 
  C346     1.0000 0.74200  0.50000  0.17950  Biso   1.000  C 
  C347     1.0000 0.64470  0.50000  0.20580  Biso   1.000  C 
  N30      1.0000 0.66131  0.47449  0.28987  Biso   1.000  N 
  C348     1.0000 0.70580  0.50000  0.14470  Biso   1.000  C 
  H368     1.0000 0.77510  0.50000  0.16950  Biso   1.000  H 
  C349     1.0000 0.65650  0.50000  0.15650  Biso   1.000  C 
  C350     1.0000 0.61720  0.50000  0.11720  Biso   1.000  C 
  H369     1.0000 0.61140  0.50000  0.21490  Biso   1.000  H 
  H370     1.0000 0.71490  0.50000  0.11140  Biso   1.000  H 
  O91      1.0000 0.57190  0.50000  0.13260  Biso   1.000  O 
  O92      1.0000 0.63260  0.50000  0.07190  Biso   1.000  O 
  C351     1.0000 0.62526  0.34088  0.30638  Biso   1.000  C 
  C352     1.0000 0.63726  0.42700  0.27877  Biso   1.000  C 
  C353     1.0000 0.81483  0.60239  0.13091  Biso   1.000  C 
  C354     1.0000 0.85747  0.56371  0.20129  Biso   1.000  C 
  H371     1.0000 0.60320  0.43306  0.25611  Biso   1.000  H 
  C355     1.0000 0.62044  0.39747  0.32468  Biso   1.000  C 
  C356     1.0000 0.66898  0.39169  0.24986  Biso   1.000  C 
  C357     1.0000 0.63993  0.34514  0.25207  Biso   1.000  C 
  H372     1.0000 0.60673  0.34765  0.22700  Biso   1.000  H 
  H373     1.0000 0.66373  0.31350  0.24002  Biso   1.000  H 
  H374     1.0000 0.70425  0.38753  0.27164  Biso   1.000  H 
  H375     1.0000 0.67680  0.40403  0.21251  Biso   1.000  H 
  C358     1.0000 0.89405  0.56382  0.15880  Biso   1.000  C 
  H376     1.0000 0.91853  0.52952  0.15717  Biso   1.000  H 
  H377     1.0000 0.91756  0.59524  0.16652  Biso   1.000  H 
  C359     1.0000 0.85829  0.56814  0.11208  Biso   1.000  C 
  H378     1.0000 0.82435  0.64246  0.12085  Biso   1.000  H 
  C360     1.0000 0.81418  0.59933  0.18824  Biso   1.000  C 
  H379     1.0000 0.84753  0.52903  0.10169  Biso   1.000  H 
  H380     1.0000 0.87796  0.58023  0.08055  Biso   1.000  H 
  H381     1.0000 0.58208  0.40807  0.33633  Biso   1.000  H 
  H382     1.0000 0.64672  0.40223  0.35747  Biso   1.000  H 
  H383     1.0000 0.65309  0.31867  0.32859  Biso   1.000  H 
  H384     1.0000 0.77838  0.58800  0.20627  Biso   1.000  H 
  H385     1.0000 0.82419  0.63699  0.19973  Biso   1.000  H 
  H386     1.0000 0.87424  0.57614  0.23792  Biso   1.000  H 
  H387     1.0000 0.86616  0.48577  0.19909  Biso   1.000  H 
  H388     1.0000 0.63269  0.49758  0.30477  Biso   1.000  H 
  H389     1.0000 0.58870  0.32246  0.31092  Biso   1.000  H 
  H390     1.0000 0.77902  0.58881  0.11642  Biso   1.000  H 
  O93      1.0000 0.13260  0.50000  0.42810  Biso   1.000  O 
  C361     1.0000 0.11720  0.50000  0.38280  Biso   1.000  C 
  O94      1.0000 0.07190  0.50000  0.36740  Biso   1.000  O 
  C362     1.0000 0.15650  0.50000  0.34350  Biso   1.000  C 
  C363     1.0000 0.20580  0.50000  0.35530  Biso   1.000  C 
  C364     1.0000 0.14470  0.50000  0.29420  Biso   1.000  C 
  C365     1.0000 0.24200  0.50000  0.32050  Biso   1.000  C 
  H391     1.0000 0.21490  0.50000  0.38860  Biso   1.000  H 
  C366     1.0000 0.17950  0.50000  0.25800  Biso   1.000  C 
  H392     1.0000 0.11140  0.50000  0.28510  Biso   1.000  H 
  C367     1.0000 0.23070  0.50000  0.26930  Biso   1.000  C 
  C368     1.0000 0.26930  0.50000  0.23070  Biso   1.000  C 
  H393     1.0000 0.27510  0.50000  0.33050  Biso   1.000  H 
  C369     1.0000 0.32050  0.50000  0.24200  Biso   1.000  C 
  N31      1.0000 0.16039  0.48693  0.20649  Biso   1.000  N 
  C370     1.0000 0.25800  0.50000  0.17950  Biso   1.000  C 
  C371     1.0000 0.35530  0.50000  0.20580  Biso   1.000  C 
  N32      1.0000 0.33869  0.52551  0.28987  Biso   1.000  N 
  C372     1.0000 0.29420  0.50000  0.14470  Biso   1.000  C 
  H394     1.0000 0.22490  0.50000  0.16950  Biso   1.000  H 
  C373     1.0000 0.34350  0.50000  0.15650  Biso   1.000  C 
  C374     1.0000 0.38280  0.50000  0.11720  Biso   1.000  C 
  H395     1.0000 0.38860  0.50000  0.21490  Biso   1.000  H 
  H396     1.0000 0.28510  0.50000  0.11140  Biso   1.000  H 
  O95      1.0000 0.42810  0.50000  0.13260  Biso   1.000  O 
  O96      1.0000 0.36740  0.50000  0.07190  Biso   1.000  O 
  C375     1.0000 0.37474  0.65912  0.30638  Biso   1.000  C 
  C376     1.0000 0.36274  0.57300  0.27877  Biso   1.000  C 
  C377     1.0000 0.18517  0.39761  0.13091  Biso   1.000  C 
  C378     1.0000 0.14253  0.43629  0.20129  Biso   1.000  C 
  H397     1.0000 0.39680  0.56694  0.25611  Biso   1.000  H 
  C379     1.0000 0.37956  0.60253  0.32468  Biso   1.000  C 
  C380     1.0000 0.33102  0.60831  0.24986  Biso   1.000  C 
  C381     1.0000 0.36007  0.65486  0.25207  Biso   1.000  C 
  H398     1.0000 0.39327  0.65235  0.22700  Biso   1.000  H 
  H399     1.0000 0.33627  0.68650  0.24002  Biso   1.000  H 
  H400     1.0000 0.29575  0.61247  0.27164  Biso   1.000  H 
  H401     1.0000 0.32320  0.59597  0.21251  Biso   1.000  H 
  C382     1.0000 0.10595  0.43618  0.15880  Biso   1.000  C 
  H402     1.0000 0.08147  0.47048  0.15717  Biso   1.000  H 
  H403     1.0000 0.08244  0.40476  0.16652  Biso   1.000  H 
  C383     1.0000 0.14171  0.43186  0.11208  Biso   1.000  C 
  H404     1.0000 0.17565  0.35754  0.12085  Biso   1.000  H 
  C384     1.0000 0.18582  0.40067  0.18824  Biso   1.000  C 
  H405     1.0000 0.15247  0.47097  0.10169  Biso   1.000  H 
  H406     1.0000 0.12204  0.41977  0.08055  Biso   1.000  H 
  H407     1.0000 0.41792  0.59193  0.33633  Biso   1.000  H 
  H408     1.0000 0.35328  0.59777  0.35747  Biso   1.000  H 
  H409     1.0000 0.34691  0.68133  0.32859  Biso   1.000  H 
  H410     1.0000 0.22162  0.41200  0.20627  Biso   1.000  H 
  H411     1.0000 0.17581  0.36301  0.19973  Biso   1.000  H 
  H412     1.0000 0.12576  0.42386  0.23792  Biso   1.000  H 
  H413     1.0000 0.13384  0.51423  0.19909  Biso   1.000  H 
  H414     1.0000 0.36731  0.50242  0.30477  Biso   1.000  H 
  H415     1.0000 0.41130  0.67754  0.31092  Biso   1.000  H 
  H416     1.0000 0.22098  0.41119  0.11642  Biso   1.000  H 
  O97      1.0000 0.07190  0.63260  0.50000  Biso   1.000  O 
  C385     1.0000 0.11720  0.61720  0.50000  Biso   1.000  C 
  O98      1.0000 0.13260  0.57190  0.50000  Biso   1.000  O 
  C386     1.0000 0.15650  0.65650  0.50000  Biso   1.000  C 
  C387     1.0000 0.14470  0.70580  0.50000  Biso   1.000  C 
  C388     1.0000 0.20580  0.64470  0.50000  Biso   1.000  C 
  C389     1.0000 0.17950  0.74200  0.50000  Biso   1.000  C 
  H417     1.0000 0.11140  0.71490  0.50000  Biso   1.000  H 
  C390     1.0000 0.24200  0.67950  0.50000  Biso   1.000  C 
  H418     1.0000 0.21490  0.61140  0.50000  Biso   1.000  H 
  C391     1.0000 0.23070  0.73070  0.50000  Biso   1.000  C 
  C392     1.0000 0.26930  0.76930  0.50000  Biso   1.000  C 
  H419     1.0000 0.16950  0.77510  0.50000  Biso   1.000  H 
  C393     1.0000 0.25800  0.82050  0.50000  Biso   1.000  C 
  N33      1.0000 0.29133  0.66054  0.47904  Biso   1.000  N 
  C394     1.0000 0.32050  0.75800  0.50000  Biso   1.000  C 
  C395     1.0000 0.29420  0.85530  0.50000  Biso   1.000  C 
  N34      1.0000 0.20655  0.84014  0.51458  Biso   1.000  N 
  C396     1.0000 0.35530  0.79420  0.50000  Biso   1.000  C 
  H420     1.0000 0.33050  0.72490  0.50000  Biso   1.000  H 
  C397     1.0000 0.34350  0.84350  0.50000  Biso   1.000  C 
  C398     1.0000 0.38280  0.88280  0.50000  Biso   1.000  C 
  H421     1.0000 0.28510  0.88860  0.50000  Biso   1.000  H 
  H422     1.0000 0.38860  0.78510  0.50000  Biso   1.000  H 
  O99      1.0000 0.36740  0.92810  0.50000  Biso   1.000  O 
  O100     1.0000 0.42810  0.86740  0.50000  Biso   1.000  O 
  C399     1.0000 0.15416  0.94282  0.55608  Biso   1.000  C 
  C400     1.0000 0.19516  0.89102  0.49476  Biso   1.000  C 
  C401     1.0000 0.34297  0.56272  0.56433  Biso   1.000  C 
  C402     1.0000 0.31348  0.61131  0.49769  Biso   1.000  C 
  H423     1.0000 0.21482  0.89736  0.46017  Biso   1.000  H 
  C403     1.0000 0.20380  0.93071  0.53445  Biso   1.000  C 
  C404     1.0000 0.14100  0.89287  0.47994  Biso   1.000  C 
  C405     1.0000 0.11457  0.92428  0.51932  Biso   1.000  C 
  H424     1.0000 0.09467  0.95528  0.50064  Biso   1.000  H 
  H425     1.0000 0.08624  0.90106  0.54022  Biso   1.000  H 
  H426     1.0000 0.12420  0.85496  0.47947  Biso   1.000  H 
  H427     1.0000 0.13809  0.90954  0.44244  Biso   1.000  H 
  C406     1.0000 0.36911  0.61256  0.49433  Biso   1.000  C 
  H428     1.0000 0.38280  0.64840  0.50834  Biso   1.000  H 
  H429     1.0000 0.38208  0.60624  0.45640  Biso   1.000  H 
  C407     1.0000 0.38206  0.56787  0.52452  Biso   1.000  C 
  H430     1.0000 0.32516  0.52548  0.56148  Biso   1.000  H 
  C408     1.0000 0.30652  0.60034  0.55185  Biso   1.000  C 
  H431     1.0000 0.42145  0.56756  0.53625  Biso   1.000  H 
  H432     1.0000 0.37887  0.53951  0.49962  Biso   1.000  H 
  H433     1.0000 0.22019  0.96491  0.51686  Biso   1.000  H 
  H434     1.0000 0.22814  0.91929  0.56483  Biso   1.000  H 
  H435     1.0000 0.14917  0.92687  0.59279  Biso   1.000  H 
  H436     1.0000 0.31161  0.63641  0.57251  Biso   1.000  H 
  H437     1.0000 0.26827  0.58499  0.55922  Biso   1.000  H 
  H438     1.0000 0.29809  0.57957  0.47642  Biso   1.000  H 
  H439     1.0000 0.28859  0.66110  0.44046  Biso   1.000  H 
  H440     1.0000 0.20264  0.83943  0.55320  Biso   1.000  H 
  H441     1.0000 0.15312  0.98346  0.55953  Biso   1.000  H 
  H442     1.0000 0.35084  0.57029  0.60407  Biso   1.000  H 
  O101     1.0000 0.07190  0.36740  0.50000  Biso   1.000  O 
  C409     1.0000 0.11720  0.38280  0.50000  Biso   1.000  C 
  O102     1.0000 0.13260  0.42810  0.50000  Biso   1.000  O 
  C410     1.0000 0.15650  0.34350  0.50000  Biso   1.000  C 
  C411     1.0000 0.14470  0.29420  0.50000  Biso   1.000  C 
  C412     1.0000 0.20580  0.35530  0.50000  Biso   1.000  C 
  C413     1.0000 0.17950  0.25800  0.50000  Biso   1.000  C 
  H443     1.0000 0.11140  0.28510  0.50000  Biso   1.000  H 
  C414     1.0000 0.24200  0.32050  0.50000  Biso   1.000  C 
  H444     1.0000 0.21490  0.38860  0.50000  Biso   1.000  H 
  C415     1.0000 0.23070  0.26930  0.50000  Biso   1.000  C 
  C416     1.0000 0.26930  0.23070  0.50000  Biso   1.000  C 
  H445     1.0000 0.16950  0.22490  0.50000  Biso   1.000  H 
  C417     1.0000 0.25800  0.17950  0.50000  Biso   1.000  C 
  N35      1.0000 0.29133  0.33946  0.52096  Biso   1.000  N 
  C418     1.0000 0.32050  0.24200  0.50000  Biso   1.000  C 
  C419     1.0000 0.29420  0.14470  0.50000  Biso   1.000  C 
  N36      1.0000 0.20655  0.15986  0.48542  Biso   1.000  N 
  C420     1.0000 0.35530  0.20580  0.50000  Biso   1.000  C 
  H446     1.0000 0.33050  0.27510  0.50000  Biso   1.000  H 
  C421     1.0000 0.34350  0.15650  0.50000  Biso   1.000  C 
  C422     1.0000 0.38280  0.11720  0.50000  Biso   1.000  C 
  H447     1.0000 0.28510  0.11140  0.50000  Biso   1.000  H 
  H448     1.0000 0.38860  0.21490  0.50000  Biso   1.000  H 
  O103     1.0000 0.36740  0.07190  0.50000  Biso   1.000  O 
  O104     1.0000 0.42810  0.13260  0.50000  Biso   1.000  O 
  C423     1.0000 0.15416  0.05718  0.44392  Biso   1.000  C 
  C424     1.0000 0.19516  0.10897  0.50524  Biso   1.000  C 
  C425     1.0000 0.34297  0.43728  0.43567  Biso   1.000  C 
  C426     1.0000 0.31348  0.38869  0.50231  Biso   1.000  C 
  H449     1.0000 0.21482  0.10264  0.53983  Biso   1.000  H 
  C427     1.0000 0.20380  0.06929  0.46555  Biso   1.000  C 
  C428     1.0000 0.14100  0.10713  0.52006  Biso   1.000  C 
  C429     1.0000 0.11457  0.07572  0.48068  Biso   1.000  C 
  H450     1.0000 0.09467  0.04472  0.49936  Biso   1.000  H 
  H451     1.0000 0.08624  0.09894  0.45978  Biso   1.000  H 
  H452     1.0000 0.12420  0.14504  0.52053  Biso   1.000  H 
  H453     1.0000 0.13809  0.09046  0.55756  Biso   1.000  H 
  C430     1.0000 0.36911  0.38744  0.50567  Biso   1.000  C 
  H454     1.0000 0.38280  0.35160  0.49166  Biso   1.000  H 
  H455     1.0000 0.38208  0.39376  0.54360  Biso   1.000  H 
  C431     1.0000 0.38206  0.43213  0.47548  Biso   1.000  C 
  H456     1.0000 0.32516  0.47452  0.43852  Biso   1.000  H 
  C432     1.0000 0.30652  0.39966  0.44815  Biso   1.000  C 
  H457     1.0000 0.42145  0.43244  0.46375  Biso   1.000  H 
  H458     1.0000 0.37887  0.46049  0.50038  Biso   1.000  H 
  H459     1.0000 0.22019  0.03509  0.48314  Biso   1.000  H 
  H460     1.0000 0.22814  0.08071  0.43517  Biso   1.000  H 
  H461     1.0000 0.14917  0.07313  0.40721  Biso   1.000  H 
  H462     1.0000 0.31161  0.36359  0.42749  Biso   1.000  H 
  H463     1.0000 0.26827  0.41501  0.44078  Biso   1.000  H 
  H464     1.0000 0.29809  0.42043  0.52358  Biso   1.000  H 
  H465     1.0000 0.28859  0.33890  0.55954  Biso   1.000  H 
  H466     1.0000 0.20264  0.16057  0.44680  Biso   1.000  H 
  H467     1.0000 0.15312  0.01654  0.44047  Biso   1.000  H 
  H468     1.0000 0.35084  0.42971  0.39593  Biso   1.000  H 
  O105     1.0000 0.92810  0.36740  0.50000  Biso   1.000  O 
  C433     1.0000 0.88280  0.38280  0.50000  Biso   1.000  C 
  O106     1.0000 0.86740  0.42810  0.50000  Biso   1.000  O 
  C434     1.0000 0.84350  0.34350  0.50000  Biso   1.000  C 
  C435     1.0000 0.85530  0.29420  0.50000  Biso   1.000  C 
  C436     1.0000 0.79420  0.35530  0.50000  Biso   1.000  C 
  C437     1.0000 0.82050  0.25800  0.50000  Biso   1.000  C 
  H469     1.0000 0.88860  0.28510  0.50000  Biso   1.000  H 
  C438     1.0000 0.75800  0.32050  0.50000  Biso   1.000  C 
  H470     1.0000 0.78510  0.38860  0.50000  Biso   1.000  H 
  C439     1.0000 0.76930  0.26930  0.50000  Biso   1.000  C 
  C440     1.0000 0.73070  0.23070  0.50000  Biso   1.000  C 
  H471     1.0000 0.83050  0.22490  0.50000  Biso   1.000  H 
  C441     1.0000 0.74200  0.17950  0.50000  Biso   1.000  C 
  N37      1.0000 0.70867  0.33946  0.47904  Biso   1.000  N 
  C442     1.0000 0.67950  0.24200  0.50000  Biso   1.000  C 
  C443     1.0000 0.70580  0.14470  0.50000  Biso   1.000  C 
  N38      1.0000 0.79345  0.15986  0.51458  Biso   1.000  N 
  C444     1.0000 0.64470  0.20580  0.50000  Biso   1.000  C 
  H472     1.0000 0.66950  0.27510  0.50000  Biso   1.000  H 
  C445     1.0000 0.65650  0.15650  0.50000  Biso   1.000  C 
  C446     1.0000 0.61720  0.11720  0.50000  Biso   1.000  C 
  H473     1.0000 0.71490  0.11140  0.50000  Biso   1.000  H 
  H474     1.0000 0.61140  0.21490  0.50000  Biso   1.000  H 
  O107     1.0000 0.63260  0.07190  0.50000  Biso   1.000  O 
  O108     1.0000 0.57190  0.13260  0.50000  Biso   1.000  O 
  C447     1.0000 0.84584  0.05718  0.55608  Biso   1.000  C 
  C448     1.0000 0.80484  0.10897  0.49476  Biso   1.000  C 
  C449     1.0000 0.65703  0.43728  0.56433  Biso   1.000  C 
  C450     1.0000 0.68652  0.38869  0.49769  Biso   1.000  C 
  H475     1.0000 0.78518  0.10264  0.46017  Biso   1.000  H 
  C451     1.0000 0.79620  0.06929  0.53445  Biso   1.000  C 
  C452     1.0000 0.85901  0.10713  0.47994  Biso   1.000  C 
  C453     1.0000 0.88543  0.07572  0.51932  Biso   1.000  C 
  H476     1.0000 0.90534  0.04472  0.50064  Biso   1.000  H 
  H477     1.0000 0.91376  0.09894  0.54022  Biso   1.000  H 
  H478     1.0000 0.87580  0.14504  0.47947  Biso   1.000  H 
  H479     1.0000 0.86191  0.09046  0.44244  Biso   1.000  H 
  C454     1.0000 0.63089  0.38744  0.49433  Biso   1.000  C 
  H480     1.0000 0.61720  0.35160  0.50834  Biso   1.000  H 
  H481     1.0000 0.61792  0.39376  0.45640  Biso   1.000  H 
  C455     1.0000 0.61794  0.43213  0.52452  Biso   1.000  C 
  H482     1.0000 0.67484  0.47452  0.56148  Biso   1.000  H 
  C456     1.0000 0.69348  0.39966  0.55185  Biso   1.000  C 
  H483     1.0000 0.57855  0.43244  0.53625  Biso   1.000  H 
  H484     1.0000 0.62113  0.46049  0.49962  Biso   1.000  H 
  H485     1.0000 0.77981  0.03509  0.51686  Biso   1.000  H 
  H486     1.0000 0.77187  0.08071  0.56483  Biso   1.000  H 
  H487     1.0000 0.85083  0.07313  0.59279  Biso   1.000  H 
  H488     1.0000 0.68839  0.36359  0.57251  Biso   1.000  H 
  H489     1.0000 0.73173  0.41501  0.55922  Biso   1.000  H 
  H490     1.0000 0.70191  0.42043  0.47642  Biso   1.000  H 
  H491     1.0000 0.71141  0.33890  0.44046  Biso   1.000  H 
  H492     1.0000 0.79736  0.16057  0.55320  Biso   1.000  H 
  H493     1.0000 0.84688  0.01654  0.55953  Biso   1.000  H 
  H494     1.0000 0.64916  0.42971  0.60407  Biso   1.000  H 
  O109     1.0000 0.92810  0.63260  0.50000  Biso   1.000  O 
  C457     1.0000 0.88280  0.61720  0.50000  Biso   1.000  C 
  O110     1.0000 0.86740  0.57190  0.50000  Biso   1.000  O 
  C458     1.0000 0.84350  0.65650  0.50000  Biso   1.000  C 
  C459     1.0000 0.85530  0.70580  0.50000  Biso   1.000  C 
  C460     1.0000 0.79420  0.64470  0.50000  Biso   1.000  C 
  C461     1.0000 0.82050  0.74200  0.50000  Biso   1.000  C 
  H495     1.0000 0.88860  0.71490  0.50000  Biso   1.000  H 
  C462     1.0000 0.75800  0.67950  0.50000  Biso   1.000  C 
  H496     1.0000 0.78510  0.61140  0.50000  Biso   1.000  H 
  C463     1.0000 0.76930  0.73070  0.50000  Biso   1.000  C 
  C464     1.0000 0.73070  0.76930  0.50000  Biso   1.000  C 
  H497     1.0000 0.83050  0.77510  0.50000  Biso   1.000  H 
  C465     1.0000 0.74200  0.82050  0.50000  Biso   1.000  C 
  N39      1.0000 0.70867  0.66054  0.52096  Biso   1.000  N 
  C466     1.0000 0.67950  0.75800  0.50000  Biso   1.000  C 
  C467     1.0000 0.70580  0.85530  0.50000  Biso   1.000  C 
  N40      1.0000 0.79345  0.84014  0.48542  Biso   1.000  N 
  C468     1.0000 0.64470  0.79420  0.50000  Biso   1.000  C 
  H498     1.0000 0.66950  0.72490  0.50000  Biso   1.000  H 
  C469     1.0000 0.65650  0.84350  0.50000  Biso   1.000  C 
  C470     1.0000 0.61720  0.88280  0.50000  Biso   1.000  C 
  H499     1.0000 0.71490  0.88860  0.50000  Biso   1.000  H 
  H500     1.0000 0.61140  0.78510  0.50000  Biso   1.000  H 
  O111     1.0000 0.63260  0.92810  0.50000  Biso   1.000  O 
  O112     1.0000 0.57190  0.86740  0.50000  Biso   1.000  O 
  C471     1.0000 0.84584  0.94282  0.44392  Biso   1.000  C 
  C472     1.0000 0.80484  0.89102  0.50524  Biso   1.000  C 
  C473     1.0000 0.65703  0.56272  0.43567  Biso   1.000  C 
  C474     1.0000 0.68652  0.61131  0.50231  Biso   1.000  C 
  H501     1.0000 0.78518  0.89736  0.53983  Biso   1.000  H 
  C475     1.0000 0.79620  0.93071  0.46555  Biso   1.000  C 
  C476     1.0000 0.85901  0.89287  0.52006  Biso   1.000  C 
  C477     1.0000 0.88543  0.92428  0.48068  Biso   1.000  C 
  H502     1.0000 0.90534  0.95528  0.49936  Biso   1.000  H 
  H503     1.0000 0.91376  0.90106  0.45978  Biso   1.000  H 
  H504     1.0000 0.87580  0.85496  0.52053  Biso   1.000  H 
  H505     1.0000 0.86191  0.90954  0.55756  Biso   1.000  H 
  C478     1.0000 0.63089  0.61256  0.50567  Biso   1.000  C 
  H506     1.0000 0.61720  0.64840  0.49166  Biso   1.000  H 
  H507     1.0000 0.61792  0.60624  0.54360  Biso   1.000  H 
  C479     1.0000 0.61794  0.56787  0.47548  Biso   1.000  C 
  H508     1.0000 0.67484  0.52548  0.43852  Biso   1.000  H 
  C480     1.0000 0.69348  0.60034  0.44815  Biso   1.000  C 
  H509     1.0000 0.57855  0.56756  0.46375  Biso   1.000  H 
  H510     1.0000 0.62113  0.53951  0.50038  Biso   1.000  H 
  H511     1.0000 0.77981  0.96491  0.48314  Biso   1.000  H 
  H512     1.0000 0.77187  0.91929  0.43517  Biso   1.000  H 
  H513     1.0000 0.85083  0.92687  0.40721  Biso   1.000  H 
  H514     1.0000 0.68839  0.63641  0.42749  Biso   1.000  H 
  H515     1.0000 0.73173  0.58499  0.44078  Biso   1.000  H 
  H516     1.0000 0.70191  0.57957  0.52358  Biso   1.000  H 
  H517     1.0000 0.71141  0.66110  0.55954  Biso   1.000  H 
  H518     1.0000 0.79736  0.83943  0.44680  Biso   1.000  H 
  H519     1.0000 0.84688  0.98346  0.44047  Biso   1.000  H 
  H520     1.0000 0.64916  0.57029  0.39593  Biso   1.000  H 
  O113     1.0000 0.50000  0.07190  0.63260  Biso   1.000  O 
  C481     1.0000 0.50000  0.11720  0.61720  Biso   1.000  C 
  O114     1.0000 0.50000  0.13260  0.57190  Biso   1.000  O 
  C482     1.0000 0.50000  0.15650  0.65650  Biso   1.000  C 
  C483     1.0000 0.50000  0.14470  0.70580  Biso   1.000  C 
  C484     1.0000 0.50000  0.20580  0.64470  Biso   1.000  C 
  C485     1.0000 0.50000  0.17950  0.74200  Biso   1.000  C 
  H521     1.0000 0.50000  0.11140  0.71490  Biso   1.000  H 
  C486     1.0000 0.50000  0.24200  0.67950  Biso   1.000  C 
  H522     1.0000 0.50000  0.21490  0.61140  Biso   1.000  H 
  C487     1.0000 0.50000  0.23070  0.73070  Biso   1.000  C 
  C488     1.0000 0.50000  0.26930  0.76930  Biso   1.000  C 
  H523     1.0000 0.50000  0.16950  0.77510  Biso   1.000  H 
  C489     1.0000 0.50000  0.25800  0.82050  Biso   1.000  C 
  N41      1.0000 0.51349  0.29342  0.66056  Biso   1.000  N 
  C490     1.0000 0.50000  0.32050  0.75800  Biso   1.000  C 
  C491     1.0000 0.50000  0.29420  0.85530  Biso   1.000  C 
  N42      1.0000 0.51221  0.20597  0.84072  Biso   1.000  N 
  C492     1.0000 0.50000  0.35530  0.79420  Biso   1.000  C 
  H524     1.0000 0.50000  0.33050  0.72490  Biso   1.000  H 
  C493     1.0000 0.50000  0.34350  0.84350  Biso   1.000  C 
  C494     1.0000 0.50000  0.38280  0.88280  Biso   1.000  C 
  H525     1.0000 0.50000  0.28510  0.88860  Biso   1.000  H 
  H526     1.0000 0.50000  0.38860  0.78510  Biso   1.000  H 
  O115     1.0000 0.50000  0.36740  0.92810  Biso   1.000  O 
  O116     1.0000 0.50000  0.42810  0.86740  Biso   1.000  O 
  C495     1.0000 0.55695  0.15453  0.94448  Biso   1.000  C 
  C496     1.0000 0.49397  0.19545  0.89287  Biso   1.000  C 
  C497     1.0000 0.59996  0.36951  0.68412  Biso   1.000  C 
  C498     1.0000 0.56424  0.29717  0.64229  Biso   1.000  C 
  H527     1.0000 0.45976  0.21531  0.90004  Biso   1.000  H 
  C499     1.0000 0.53485  0.20419  0.93142  Biso   1.000  C 
  C500     1.0000 0.47838  0.14153  0.89784  Biso   1.000  C 
  C501     1.0000 0.52222  0.11500  0.92174  Biso   1.000  C 
  H528     1.0000 0.50829  0.08917  0.95000  Biso   1.000  H 
  H529     1.0000 0.54255  0.09256  0.89259  Biso   1.000  H 
  H530     1.0000 0.47122  0.12534  0.86037  Biso   1.000  H 
  H531     1.0000 0.44443  0.13867  0.92132  Biso   1.000  H 
  C502     1.0000 0.56498  0.33907  0.60432  Biso   1.000  C 
  H532     1.0000 0.53251  0.33932  0.57715  Biso   1.000  H 
  H533     1.0000 0.59822  0.33106  0.58350  Biso   1.000  H 
  C503     1.0000 0.56636  0.38652  0.63930  Biso   1.000  C 
  H534     1.0000 0.64003  0.38163  0.67816  Biso   1.000  H 
  C504     1.0000 0.60029  0.31224  0.68441  Biso   1.000  C 
  H535     1.0000 0.52643  0.39330  0.64890  Biso   1.000  H 
  H536     1.0000 0.57928  0.41965  0.62203  Biso   1.000  H 
  H537     1.0000 0.51910  0.22122  0.96583  Biso   1.000  H 
  H538     1.0000 0.56531  0.22787  0.91846  Biso   1.000  H 
  H539     1.0000 0.59494  0.15169  0.93132  Biso   1.000  H 
  H540     1.0000 0.59116  0.29158  0.71913  Biso   1.000  H 
  H541     1.0000 0.63760  0.30242  0.67199  Biso   1.000  H 
  H542     1.0000 0.57716  0.26039  0.62621  Biso   1.000  H 
  H543     1.0000 0.48693  0.29980  0.63314  Biso   1.000  H 
  H544     1.0000 0.55076  0.20057  0.83903  Biso   1.000  H 
  H545     1.0000 0.55810  0.15132  0.98534  Biso   1.000  H 
  H546     1.0000 0.58328  0.38119  0.71992  Biso   1.000  H 
  O117     1.0000 0.50000  0.07190  0.36740  Biso   1.000  O 
  C505     1.0000 0.50000  0.11720  0.38280  Biso   1.000  C 
  O118     1.0000 0.50000  0.13260  0.42810  Biso   1.000  O 
  C506     1.0000 0.50000  0.15650  0.34350  Biso   1.000  C 
  C507     1.0000 0.50000  0.14470  0.29420  Biso   1.000  C 
  C508     1.0000 0.50000  0.20580  0.35530  Biso   1.000  C 
  C509     1.0000 0.50000  0.17950  0.25800  Biso   1.000  C 
  H547     1.0000 0.50000  0.11140  0.28510  Biso   1.000  H 
  C510     1.0000 0.50000  0.24200  0.32050  Biso   1.000  C 
  H548     1.0000 0.50000  0.21490  0.38860  Biso   1.000  H 
  C511     1.0000 0.50000  0.23070  0.26930  Biso   1.000  C 
  C512     1.0000 0.50000  0.26930  0.23070  Biso   1.000  C 
  H549     1.0000 0.50000  0.16950  0.22490  Biso   1.000  H 
  C513     1.0000 0.50000  0.25800  0.17950  Biso   1.000  C 
  N43      1.0000 0.48651  0.29342  0.33944  Biso   1.000  N 
  C514     1.0000 0.50000  0.32050  0.24200  Biso   1.000  C 
  C515     1.0000 0.50000  0.29420  0.14470  Biso   1.000  C 
  N44      1.0000 0.48779  0.20597  0.15928  Biso   1.000  N 
  C516     1.0000 0.50000  0.35530  0.20580  Biso   1.000  C 
  H550     1.0000 0.50000  0.33050  0.27510  Biso   1.000  H 
  C517     1.0000 0.50000  0.34350  0.15650  Biso   1.000  C 
  C518     1.0000 0.50000  0.38280  0.11720  Biso   1.000  C 
  H551     1.0000 0.50000  0.28510  0.11140  Biso   1.000  H 
  H552     1.0000 0.50000  0.38860  0.21490  Biso   1.000  H 
  O119     1.0000 0.50000  0.36740  0.07190  Biso   1.000  O 
  O120     1.0000 0.50000  0.42810  0.13260  Biso   1.000  O 
  C519     1.0000 0.44305  0.15453  0.05552  Biso   1.000  C 
  C520     1.0000 0.50603  0.19545  0.10714  Biso   1.000  C 
  C521     1.0000 0.40004  0.36951  0.31588  Biso   1.000  C 
  C522     1.0000 0.43576  0.29717  0.35771  Biso   1.000  C 
  H553     1.0000 0.54024  0.21531  0.09996  Biso   1.000  H 
  C523     1.0000 0.46515  0.20419  0.06857  Biso   1.000  C 
  C524     1.0000 0.52162  0.14153  0.10216  Biso   1.000  C 
  C525     1.0000 0.47778  0.11500  0.07826  Biso   1.000  C 
  H554     1.0000 0.49171  0.08917  0.05000  Biso   1.000  H 
  H555     1.0000 0.45745  0.09256  0.10741  Biso   1.000  H 
  H556     1.0000 0.52878  0.12534  0.13963  Biso   1.000  H 
  H557     1.0000 0.55557  0.13867  0.07868  Biso   1.000  H 
  C526     1.0000 0.43502  0.33907  0.39568  Biso   1.000  C 
  H558     1.0000 0.46749  0.33932  0.42285  Biso   1.000  H 
  H559     1.0000 0.40178  0.33106  0.41650  Biso   1.000  H 
  C527     1.0000 0.43364  0.38652  0.36071  Biso   1.000  C 
  H560     1.0000 0.35997  0.38163  0.32183  Biso   1.000  H 
  C528     1.0000 0.39971  0.31224  0.31559  Biso   1.000  C 
  H561     1.0000 0.47357  0.39330  0.35110  Biso   1.000  H 
  H562     1.0000 0.42072  0.41965  0.37797  Biso   1.000  H 
  H563     1.0000 0.48090  0.22122  0.03417  Biso   1.000  H 
  H564     1.0000 0.43469  0.22787  0.08153  Biso   1.000  H 
  H565     1.0000 0.40506  0.15169  0.06868  Biso   1.000  H 
  H566     1.0000 0.40884  0.29158  0.28087  Biso   1.000  H 
  H567     1.0000 0.36240  0.30242  0.32801  Biso   1.000  H 
  H568     1.0000 0.42284  0.26039  0.37379  Biso   1.000  H 
  H569     1.0000 0.51307  0.29980  0.36686  Biso   1.000  H 
  H570     1.0000 0.44924  0.20057  0.16097  Biso   1.000  H 
  H571     1.0000 0.44190  0.15132  0.01466  Biso   1.000  H 
  H572     1.0000 0.41672  0.38119  0.28008  Biso   1.000  H 
  O121     1.0000 0.50000  0.92810  0.36740  Biso   1.000  O 
  C529     1.0000 0.50000  0.88280  0.38280  Biso   1.000  C 
  O122     1.0000 0.50000  0.86740  0.42810  Biso   1.000  O 
  C530     1.0000 0.50000  0.84350  0.34350  Biso   1.000  C 
  C531     1.0000 0.50000  0.85530  0.29420  Biso   1.000  C 
  C532     1.0000 0.50000  0.79420  0.35530  Biso   1.000  C 
  C533     1.0000 0.50000  0.82050  0.25800  Biso   1.000  C 
  H573     1.0000 0.50000  0.88860  0.28510  Biso   1.000  H 
  C534     1.0000 0.50000  0.75800  0.32050  Biso   1.000  C 
  H574     1.0000 0.50000  0.78510  0.38860  Biso   1.000  H 
  C535     1.0000 0.50000  0.76930  0.26930  Biso   1.000  C 
  C536     1.0000 0.50000  0.73070  0.23070  Biso   1.000  C 
  H575     1.0000 0.50000  0.83050  0.22490  Biso   1.000  H 
  C537     1.0000 0.50000  0.74200  0.17950  Biso   1.000  C 
  N45      1.0000 0.51349  0.70658  0.33944  Biso   1.000  N 
  C538     1.0000 0.50000  0.67950  0.24200  Biso   1.000  C 
  C539     1.0000 0.50000  0.70580  0.14470  Biso   1.000  C 
  N46      1.0000 0.51221  0.79403  0.15928  Biso   1.000  N 
  C540     1.0000 0.50000  0.64470  0.20580  Biso   1.000  C 
  H576     1.0000 0.50000  0.66950  0.27510  Biso   1.000  H 
  C541     1.0000 0.50000  0.65650  0.15650  Biso   1.000  C 
  C542     1.0000 0.50000  0.61720  0.11720  Biso   1.000  C 
  H577     1.0000 0.50000  0.71490  0.11140  Biso   1.000  H 
  H578     1.0000 0.50000  0.61140  0.21490  Biso   1.000  H 
  O123     1.0000 0.50000  0.63260  0.07190  Biso   1.000  O 
  O124     1.0000 0.50000  0.57190  0.13260  Biso   1.000  O 
  C543     1.0000 0.55695  0.84547  0.05552  Biso   1.000  C 
  C544     1.0000 0.49397  0.80455  0.10714  Biso   1.000  C 
  C545     1.0000 0.59996  0.63049  0.31588  Biso   1.000  C 
  C546     1.0000 0.56424  0.70283  0.35771  Biso   1.000  C 
  H579     1.0000 0.45976  0.78469  0.09996  Biso   1.000  H 
  C547     1.0000 0.53485  0.79581  0.06857  Biso   1.000  C 
  C548     1.0000 0.47838  0.85847  0.10216  Biso   1.000  C 
  C549     1.0000 0.52222  0.88500  0.07826  Biso   1.000  C 
  H580     1.0000 0.50829  0.91083  0.05000  Biso   1.000  H 
  H581     1.0000 0.54255  0.90744  0.10741  Biso   1.000  H 
  H582     1.0000 0.47122  0.87465  0.13963  Biso   1.000  H 
  H583     1.0000 0.44443  0.86133  0.07868  Biso   1.000  H 
  C550     1.0000 0.56498  0.66092  0.39568  Biso   1.000  C 
  H584     1.0000 0.53251  0.66067  0.42285  Biso   1.000  H 
  H585     1.0000 0.59822  0.66894  0.41650  Biso   1.000  H 
  C551     1.0000 0.56636  0.61348  0.36071  Biso   1.000  C 
  H586     1.0000 0.64003  0.61837  0.32183  Biso   1.000  H 
  C552     1.0000 0.60029  0.68776  0.31559  Biso   1.000  C 
  H587     1.0000 0.52643  0.60670  0.35110  Biso   1.000  H 
  H588     1.0000 0.57928  0.58035  0.37797  Biso   1.000  H 
  H589     1.0000 0.51910  0.77878  0.03417  Biso   1.000  H 
  H590     1.0000 0.56531  0.77213  0.08153  Biso   1.000  H 
  H591     1.0000 0.59494  0.84831  0.06868  Biso   1.000  H 
  H592     1.0000 0.59116  0.70842  0.28087  Biso   1.000  H 
  H593     1.0000 0.63760  0.69758  0.32801  Biso   1.000  H 
  H594     1.0000 0.57716  0.73961  0.37379  Biso   1.000  H 
  H595     1.0000 0.48693  0.70020  0.36686  Biso   1.000  H 
  H596     1.0000 0.55076  0.79942  0.16097  Biso   1.000  H 
  H597     1.0000 0.55810  0.84868  0.01466  Biso   1.000  H 
  H598     1.0000 0.58328  0.61881  0.28008  Biso   1.000  H 
  O125     1.0000 0.50000  0.92810  0.63260  Biso   1.000  O 
  C553     1.0000 0.50000  0.88280  0.61720  Biso   1.000  C 
  O126     1.0000 0.50000  0.86740  0.57190  Biso   1.000  O 
  C554     1.0000 0.50000  0.84350  0.65650  Biso   1.000  C 
  C555     1.0000 0.50000  0.85530  0.70580  Biso   1.000  C 
  C556     1.0000 0.50000  0.79420  0.64470  Biso   1.000  C 
  C557     1.0000 0.50000  0.82050  0.74200  Biso   1.000  C 
  H599     1.0000 0.50000  0.88860  0.71490  Biso   1.000  H 
  C558     1.0000 0.50000  0.75800  0.67950  Biso   1.000  C 
  H600     1.0000 0.50000  0.78510  0.61140  Biso   1.000  H 
  C559     1.0000 0.50000  0.76930  0.73070  Biso   1.000  C 
  C560     1.0000 0.50000  0.73070  0.76930  Biso   1.000  C 
  H601     1.0000 0.50000  0.83050  0.77510  Biso   1.000  H 
  C561     1.0000 0.50000  0.74200  0.82050  Biso   1.000  C 
  N47      1.0000 0.48651  0.70658  0.66056  Biso   1.000  N 
  C562     1.0000 0.50000  0.67950  0.75800  Biso   1.000  C 
  C563     1.0000 0.50000  0.70580  0.85530  Biso   1.000  C 
  N48      1.0000 0.48779  0.79403  0.84072  Biso   1.000  N 
  C564     1.0000 0.50000  0.64470  0.79420  Biso   1.000  C 
  H602     1.0000 0.50000  0.66950  0.72490  Biso   1.000  H 
  C565     1.0000 0.50000  0.65650  0.84350  Biso   1.000  C 
  C566     1.0000 0.50000  0.61720  0.88280  Biso   1.000  C 
  H603     1.0000 0.50000  0.71490  0.88860  Biso   1.000  H 
  H604     1.0000 0.50000  0.61140  0.78510  Biso   1.000  H 
  O127     1.0000 0.50000  0.63260  0.92810  Biso   1.000  O 
  O128     1.0000 0.50000  0.57190  0.86740  Biso   1.000  O 
  C567     1.0000 0.44305  0.84547  0.94448  Biso   1.000  C 
  C568     1.0000 0.50603  0.80455  0.89287  Biso   1.000  C 
  C569     1.0000 0.40004  0.63049  0.68412  Biso   1.000  C 
  C570     1.0000 0.43576  0.70283  0.64229  Biso   1.000  C 
  H605     1.0000 0.54024  0.78469  0.90004  Biso   1.000  H 
  C571     1.0000 0.46515  0.79581  0.93142  Biso   1.000  C 
  C572     1.0000 0.52162  0.85847  0.89784  Biso   1.000  C 
  C573     1.0000 0.47778  0.88500  0.92174  Biso   1.000  C 
  H606     1.0000 0.49171  0.91083  0.95000  Biso   1.000  H 
  H607     1.0000 0.45745  0.90744  0.89259  Biso   1.000  H 
  H608     1.0000 0.52878  0.87465  0.86037  Biso   1.000  H 
  H609     1.0000 0.55557  0.86133  0.92132  Biso   1.000  H 
  C574     1.0000 0.43502  0.66092  0.60432  Biso   1.000  C 
  H610     1.0000 0.46749  0.66067  0.57715  Biso   1.000  H 
  H611     1.0000 0.40178  0.66894  0.58350  Biso   1.000  H 
  C575     1.0000 0.43364  0.61348  0.63930  Biso   1.000  C 
  H612     1.0000 0.35997  0.61837  0.67816  Biso   1.000  H 
  C576     1.0000 0.39971  0.68776  0.68441  Biso   1.000  C 
  H613     1.0000 0.47357  0.60670  0.64890  Biso   1.000  H 
  H614     1.0000 0.42072  0.58035  0.62203  Biso   1.000  H 
  H615     1.0000 0.48090  0.77878  0.96583  Biso   1.000  H 
  H616     1.0000 0.43469  0.77213  0.91846  Biso   1.000  H 
  H617     1.0000 0.40506  0.84831  0.93132  Biso   1.000  H 
  H618     1.0000 0.40884  0.70842  0.71913  Biso   1.000  H 
  H619     1.0000 0.36240  0.69758  0.67199  Biso   1.000  H 
  H620     1.0000 0.42284  0.73961  0.62621  Biso   1.000  H 
  H621     1.0000 0.51307  0.70020  0.63314  Biso   1.000  H 
  H622     1.0000 0.44924  0.79942  0.83903  Biso   1.000  H 
  H623     1.0000 0.44190  0.84868  0.98534  Biso   1.000  H 
  H624     1.0000 0.41672  0.61881  0.71992  Biso   1.000  H 
