data_image0
_cell_length_a       20.7004
_cell_length_b       20.7004
_cell_length_c       20.7004
_cell_angle_alpha    90
_cell_angle_beta     90
_cell_angle_gamma    90

_symmetry_space_group_name_H-M    "P 1"
_symmetry_int_tables_number       1

loop_
  _symmetry_equiv_pos_as_xyz
  'x, y, z'

loop_
  _atom_site_label
  _atom_site_occupancy
  _atom_site_fract_x
  _atom_site_fract_y
  _atom_site_fract_z
  _atom_site_thermal_displace_type
  _atom_site_B_iso_or_equiv
  _atom_site_type_symbol
  Zr1      1.0000 0.11989  0.00000  0.00000  Biso   1.000  Zr
  Zr2      1.0000 0.11989  0.50000  0.50000  Biso   1.000  Zr
  Zr3      1.0000 0.61989  0.00000  0.50000  Biso   1.000  Zr
  Zr4      1.0000 0.61989  0.50000  0.00000  Biso   1.000  Zr
  Zr5      1.0000 0.88011  0.00000  0.00000  Biso   1.000  Zr
  Zr6      1.0000 0.88011  0.50000  0.50000  Biso   1.000  Zr
  Zr7      1.0000 0.38011  0.00000  0.50000  Biso   1.000  Zr
  Zr8      1.0000 0.38011  0.50000  0.00000  Biso   1.000  Zr
  Zr9      1.0000 0.00000  0.11989  0.00000  Biso   1.000  Zr
  Zr10     1.0000 0.00000  0.61989  0.50000  Biso   1.000  Zr
  Zr11     1.0000 0.50000  0.11989  0.50000  Biso   1.000  Zr
  Zr12     1.0000 0.50000  0.61989  0.00000  Biso   1.000  Zr
  Zr13     1.0000 0.00000  0.88011  0.00000  Biso   1.000  Zr
  Zr14     1.0000 0.00000  0.38011  0.50000  Biso   1.000  Zr
  Zr15     1.0000 0.50000  0.88011  0.50000  Biso   1.000  Zr
  Zr16     1.0000 0.50000  0.38011  0.00000  Biso   1.000  Zr
  Zr17     1.0000 0.00000  0.00000  0.11989  Biso   1.000  Zr
  Zr18     1.0000 0.00000  0.50000  0.61989  Biso   1.000  Zr
  Zr19     1.0000 0.50000  0.00000  0.61989  Biso   1.000  Zr
  Zr20     1.0000 0.50000  0.50000  0.11989  Biso   1.000  Zr
  Zr21     1.0000 0.00000  0.00000  0.88011  Biso   1.000  Zr
  Zr22     1.0000 0.00000  0.50000  0.38011  Biso   1.000  Zr
  Zr23     1.0000 0.50000  0.00000  0.38011  Biso   1.000  Zr
  Zr24     1.0000 0.50000  0.50000  0.88011  Biso   1.000  Zr
  O1       1.0000 0.05610  0.44390  0.44390  Biso   1.000  O 
  O2       1.0000 0.55610  0.94390  0.44390  Biso   1.000  O 
  O3       1.0000 0.55610  0.44390  0.94390  Biso   1.000  O 
  O4       1.0000 0.44390  0.05610  0.44390  Biso   1.000  O 
  O5       1.0000 0.44390  0.55610  0.94390  Biso   1.000  O 
  O6       1.0000 0.94390  0.94390  0.05610  Biso   1.000  O 
  O7       1.0000 0.94390  0.44390  0.55610  Biso   1.000  O 
  O8       1.0000 0.05610  0.05610  0.05610  Biso   1.000  O 
  O9       1.0000 0.55610  0.55610  0.05610  Biso   1.000  O 
  O10      1.0000 0.94390  0.05610  0.05610  Biso   1.000  O 
  O11      1.0000 0.94390  0.55610  0.55610  Biso   1.000  O 
  O12      1.0000 0.44390  0.05610  0.55610  Biso   1.000  O 
  O13      1.0000 0.44390  0.55610  0.05610  Biso   1.000  O 
  O14      1.0000 0.05610  0.94390  0.05610  Biso   1.000  O 
  O15      1.0000 0.05610  0.44390  0.55610  Biso   1.000  O 
  O16      1.0000 0.55610  0.94390  0.55610  Biso   1.000  O 
  O17      1.0000 0.55610  0.44390  0.05610  Biso   1.000  O 
  O18      1.0000 0.94390  0.94390  0.94390  Biso   1.000  O 
  O19      1.0000 0.94390  0.44390  0.44390  Biso   1.000  O 
  O20      1.0000 0.44390  0.94390  0.44390  Biso   1.000  O 
  O21      1.0000 0.44390  0.44390  0.94390  Biso   1.000  O 
  O22      1.0000 0.05610  0.05610  0.94390  Biso   1.000  O 
  O23      1.0000 0.05610  0.55610  0.44390  Biso   1.000  O 
  O24      1.0000 0.55610  0.05610  0.44390  Biso   1.000  O 
  C1       1.0000 0.15360  0.00000  0.84640  Biso   1.000  C 
  O25      1.0000 0.17046  0.00000  0.90471  Biso   1.000  O 
  O26      1.0000 0.09529  0.00000  0.82954  Biso   1.000  O 
  C2       1.0000 0.20500  0.00000  0.79500  Biso   1.000  C 
  C3       1.0000 0.18437  0.00000  0.73249  Biso   1.000  C 
  N1       1.0000 0.11373  0.99429  0.71087  Biso   1.000  N 
  H1       1.0000 0.22128  0.00000  0.63051  Biso   1.000  H 
  C4       1.0000 0.23249  0.00000  0.68442  Biso   1.000  C 
  C5       1.0000 0.29500  0.00000  0.70500  Biso   1.000  C 
  C6       1.0000 0.31558  0.00000  0.76751  Biso   1.000  C 
  C7       1.0000 0.26751  0.00000  0.81563  Biso   1.000  C 
  H2       1.0000 0.27872  0.00000  0.86954  Biso   1.000  H 
  H3       1.0000 0.36949  0.00000  0.77872  Biso   1.000  H 
  O27      1.0000 0.40470  0.00000  0.67046  Biso   1.000  O 
  C8       1.0000 0.34640  0.00000  0.65360  Biso   1.000  C 
  O28      1.0000 0.32954  0.00000  0.59529  Biso   1.000  O 
  H4       1.0000 0.10807  0.03835  0.68632  Biso   1.000  H 
  C9       1.0000 0.11181  0.94302  0.66250  Biso   1.000  C 
  H5       1.0000 0.13975  0.95103  0.61790  Biso   1.000  H 
  C10      1.0000 0.04663  0.95043  0.63898  Biso   1.000  C 
  C11      1.0000 0.13413  0.87329  0.68341  Biso   1.000  C 
  C12      1.0000 0.07696  0.84837  0.56959  Biso   1.000  C 
  C13      1.0000 0.03099  0.89941  0.59250  Biso   1.000  C 
  H6       1.0000 0.04292  0.99659  0.61079  Biso   1.000  H 
  H7       1.0000 0.01214  0.95553  0.67870  Biso   1.000  H 
  H8       1.0000 0.98999  0.87567  0.61147  Biso   1.000  H 
  H9       1.0000 0.01479  0.92086  0.54634  Biso   1.000  H 
  C14      1.0000 0.11893  0.82575  0.62823  Biso   1.000  C 
  H10      1.0000 0.10252  0.78027  0.64908  Biso   1.000  H 
  H11      1.0000 0.16520  0.81595  0.60580  Biso   1.000  H 
  H12      1.0000 0.18619  0.87306  0.68700  Biso   1.000  H 
  H13      1.0000 0.04934  0.80778  0.54958  Biso   1.000  H 
  H14      1.0000 0.11533  0.85616  0.73130  Biso   1.000  H 
  H15      1.0000 0.10883  0.86937  0.53296  Biso   1.000  H 
  C15      1.0000 0.15360  0.50000  0.34640  Biso   1.000  C 
  O29      1.0000 0.17046  0.50000  0.40471  Biso   1.000  O 
  O30      1.0000 0.09529  0.50000  0.32954  Biso   1.000  O 
  C16      1.0000 0.20500  0.50000  0.29500  Biso   1.000  C 
  C17      1.0000 0.18437  0.50000  0.23249  Biso   1.000  C 
  N2       1.0000 0.11337  0.50325  0.21174  Biso   1.000  N 
  H16      1.0000 0.22128  0.50000  0.13051  Biso   1.000  H 
  C18      1.0000 0.23249  0.50000  0.18442  Biso   1.000  C 
  C19      1.0000 0.29500  0.50000  0.20500  Biso   1.000  C 
  C20      1.0000 0.31558  0.50000  0.26751  Biso   1.000  C 
  C21      1.0000 0.26751  0.50000  0.31563  Biso   1.000  C 
  H17      1.0000 0.27872  0.50000  0.36954  Biso   1.000  H 
  H18      1.0000 0.36949  0.50000  0.27872  Biso   1.000  H 
  O31      1.0000 0.40470  0.50000  0.17046  Biso   1.000  O 
  C22      1.0000 0.34640  0.50000  0.15360  Biso   1.000  C 
  O32      1.0000 0.32954  0.50000  0.09529  Biso   1.000  O 
  H19      1.0000 0.08824  0.46675  0.23540  Biso   1.000  H 
  C23      1.0000 0.10372  0.47900  0.14566  Biso   1.000  C 
  H20      1.0000 0.12790  0.51560  0.11492  Biso   1.000  H 
  C24      1.0000 0.03076  0.47887  0.12796  Biso   1.000  C 
  C25      1.0000 0.13230  0.40981  0.14085  Biso   1.000  C 
  C26      1.0000 0.05297  0.39206  0.04774  Biso   1.000  C 
  C27      1.0000 0.00901  0.41726  0.09596  Biso   1.000  C 
  H21      1.0000 0.02309  0.52011  0.09684  Biso   1.000  H 
  H22      1.0000 0.99983  0.48709  0.17203  Biso   1.000  H 
  H23      1.0000 0.01131  0.38059  0.13050  Biso   1.000  H 
  H24      1.0000 0.96070  0.42272  0.07632  Biso   1.000  H 
  C28      1.0000 0.11877  0.37820  0.07770  Biso   1.000  C 
  H25      1.0000 0.12503  0.32626  0.08612  Biso   1.000  H 
  H26      1.0000 0.15358  0.39796  0.04463  Biso   1.000  H 
  H27      1.0000 0.18529  0.40441  0.14454  Biso   1.000  H 
  H28      1.0000 0.03431  0.35337  0.01690  Biso   1.000  H 
  H29      1.0000 0.11004  0.37987  0.17994  Biso   1.000  H 
  H30      1.0000 0.05717  0.43327  0.01924  Biso   1.000  H 
  C29      1.0000 0.65360  0.00000  0.34640  Biso   1.000  C 
  O33      1.0000 0.67046  0.00000  0.40471  Biso   1.000  O 
  O34      1.0000 0.59529  0.00000  0.32954  Biso   1.000  O 
  C30      1.0000 0.70500  0.00000  0.29500  Biso   1.000  C 
  C31      1.0000 0.68437  0.00000  0.23249  Biso   1.000  C 
  N3       1.0000 0.61302  0.00244  0.21575  Biso   1.000  N 
  H31      1.0000 0.72128  0.00000  0.13051  Biso   1.000  H 
  C32      1.0000 0.73248  0.00000  0.18442  Biso   1.000  C 
  C33      1.0000 0.79499  0.00000  0.20500  Biso   1.000  C 
  C34      1.0000 0.81558  0.00000  0.26751  Biso   1.000  C 
  C35      1.0000 0.76751  0.00000  0.31563  Biso   1.000  C 
  H32      1.0000 0.77872  0.00000  0.36954  Biso   1.000  H 
  H33      1.0000 0.86949  0.00000  0.27872  Biso   1.000  H 
  O35      1.0000 0.90470  0.00000  0.17046  Biso   1.000  O 
  C36      1.0000 0.84639  0.00000  0.15360  Biso   1.000  C 
  O36      1.0000 0.82953  0.00000  0.09529  Biso   1.000  O 
  H34      1.0000 0.60567  0.05077  0.20349  Biso   1.000  H 
  C37      1.0000 0.60539  0.96141  0.16103  Biso   1.000  C 
  H35      1.0000 0.63207  0.98035  0.12072  Biso   1.000  H 
  C38      1.0000 0.53692  0.96673  0.13402  Biso   1.000  C 
  C39      1.0000 0.63059  0.89042  0.17747  Biso   1.000  C 
  C40      1.0000 0.56802  0.86510  0.06698  Biso   1.000  C 
  C41      1.0000 0.53739  0.93305  0.06825  Biso   1.000  C 
  H36      1.0000 0.52820  0.01988  0.12886  Biso   1.000  H 
  H37      1.0000 0.50414  0.94639  0.16941  Biso   1.000  H 
  H38      1.0000 0.48998  0.93718  0.04280  Biso   1.000  H 
  H39      1.0000 0.57007  0.96488  0.03844  Biso   1.000  H 
  C42      1.0000 0.62337  0.85024  0.11689  Biso   1.000  C 
  H40      1.0000 0.61226  0.80147  0.13091  Biso   1.000  H 
  H41      1.0000 0.67212  0.84891  0.09755  Biso   1.000  H 
  H42      1.0000 0.68337  0.88789  0.19449  Biso   1.000  H 
  H43      1.0000 0.53466  0.82454  0.05415  Biso   1.000  H 
  H44      1.0000 0.60144  0.87031  0.21708  Biso   1.000  H 
  H45      1.0000 0.59439  0.86770  0.02467  Biso   1.000  H 
  C43      1.0000 0.65360  0.50000  0.84640  Biso   1.000  C 
  O37      1.0000 0.67046  0.50000  0.90471  Biso   1.000  O 
  O38      1.0000 0.59529  0.50000  0.82954  Biso   1.000  O 
  C44      1.0000 0.70500  0.50000  0.79500  Biso   1.000  C 
  C45      1.0000 0.68437  0.50000  0.73249  Biso   1.000  C 
  N4       1.0000 0.61371  0.49320  0.71511  Biso   1.000  N 
  H46      1.0000 0.72128  0.50000  0.63051  Biso   1.000  H 
  C46      1.0000 0.73248  0.50000  0.68442  Biso   1.000  C 
  C47      1.0000 0.79499  0.50000  0.70500  Biso   1.000  C 
  C48      1.0000 0.81558  0.50000  0.76751  Biso   1.000  C 
  C49      1.0000 0.76751  0.50000  0.81563  Biso   1.000  C 
  H47      1.0000 0.77872  0.50000  0.86954  Biso   1.000  H 
  H48      1.0000 0.86949  0.50000  0.77872  Biso   1.000  H 
  O39      1.0000 0.90470  0.50000  0.67046  Biso   1.000  O 
  C50      1.0000 0.84639  0.50000  0.65360  Biso   1.000  C 
  O40      1.0000 0.82953  0.50000  0.59529  Biso   1.000  O 
  H49      1.0000 0.59446  0.45161  0.73534  Biso   1.000  H 
  C51      1.0000 0.60500  0.48063  0.64695  Biso   1.000  C 
  H50      1.0000 0.62867  0.51926  0.61948  Biso   1.000  H 
  C52      1.0000 0.53569  0.49106  0.62209  Biso   1.000  C 
  C53      1.0000 0.63079  0.40994  0.63119  Biso   1.000  C 
  C54      1.0000 0.54250  0.38995  0.54820  Biso   1.000  C 
  C55      1.0000 0.50582  0.42929  0.59751  Biso   1.000  C 
  H51      1.0000 0.53566  0.52556  0.58114  Biso   1.000  H 
  H52      1.0000 0.50669  0.51390  0.66095  Biso   1.000  H 
  H53      1.0000 0.50977  0.39678  0.63528  Biso   1.000  H 
  H54      1.0000 0.45470  0.43179  0.58524  Biso   1.000  H 
  C56      1.0000 0.61361  0.38619  0.56655  Biso   1.000  C 
  H55      1.0000 0.62796  0.33664  0.57313  Biso   1.000  H 
  H56      1.0000 0.64234  0.40748  0.52945  Biso   1.000  H 
  H57      1.0000 0.68358  0.40202  0.63494  Biso   1.000  H 
  H58      1.0000 0.52251  0.34035  0.54117  Biso   1.000  H 
  H59      1.0000 0.60697  0.37469  0.66402  Biso   1.000  H 
  H60      1.0000 0.53522  0.41752  0.50357  Biso   1.000  H 
  C57      1.0000 0.84640  0.00000  0.84640  Biso   1.000  C 
  O41      1.0000 0.82954  0.00000  0.90471  Biso   1.000  O 
  O42      1.0000 0.90471  0.00000  0.82954  Biso   1.000  O 
  C58      1.0000 0.79500  0.00000  0.79500  Biso   1.000  C 
  C59      1.0000 0.81563  0.00000  0.73249  Biso   1.000  C 
  N5       1.0000 0.87200  0.95772  0.71102  Biso   1.000  N 
  H61      1.0000 0.77872  0.00000  0.63051  Biso   1.000  H 
  C60      1.0000 0.76752  0.00000  0.68442  Biso   1.000  C 
  C61      1.0000 0.70501  0.00000  0.70500  Biso   1.000  C 
  C62      1.0000 0.68442  0.00000  0.76751  Biso   1.000  C 
  C63      1.0000 0.73249  0.00000  0.81563  Biso   1.000  C 
  H62      1.0000 0.72128  0.00000  0.86954  Biso   1.000  H 
  H63      1.0000 0.63051  0.00000  0.77872  Biso   1.000  H 
  O43      1.0000 0.59530  0.00000  0.67046  Biso   1.000  O 
  C64      1.0000 0.65361  0.00000  0.65360  Biso   1.000  C 
  O44      1.0000 0.67047  0.00000  0.59529  Biso   1.000  O 
  H64      1.0000 0.91432  0.95312  0.73896  Biso   1.000  H 
  C65      1.0000 0.84278  0.89568  0.68320  Biso   1.000  C 
  H65      1.0000 0.79071  0.89593  0.67496  Biso   1.000  H 
  C66      1.0000 0.83999  0.84332  0.73229  Biso   1.000  C 
  C67      1.0000 0.86005  0.87582  0.61440  Biso   1.000  C 
  C68      1.0000 0.83647  0.75732  0.64542  Biso   1.000  C 
  C69      1.0000 0.80381  0.78255  0.70396  Biso   1.000  C 
  H66      1.0000 0.81576  0.86370  0.77399  Biso   1.000  H 
  H67      1.0000 0.88706  0.82780  0.74735  Biso   1.000  H 
  H68      1.0000 0.80312  0.73957  0.73397  Biso   1.000  H 
  H69      1.0000 0.75429  0.79500  0.69154  Biso   1.000  H 
  C70      1.0000 0.88135  0.80690  0.61742  Biso   1.000  C 
  H70      1.0000 0.91370  0.81764  0.65212  Biso   1.000  H 
  H71      1.0000 0.91130  0.78669  0.58014  Biso   1.000  H 
  H72      1.0000 0.81910  0.88255  0.58307  Biso   1.000  H 
  H73      1.0000 0.86560  0.71351  0.65657  Biso   1.000  H 
  H74      1.0000 0.89788  0.90696  0.59693  Biso   1.000  H 
  H75      1.0000 0.79763  0.74210  0.61263  Biso   1.000  H 
  C71      1.0000 0.84640  0.50000  0.34640  Biso   1.000  C 
  O45      1.0000 0.82954  0.50000  0.40471  Biso   1.000  O 
  O46      1.0000 0.90471  0.50000  0.32954  Biso   1.000  O 
  C72      1.0000 0.79500  0.50000  0.29500  Biso   1.000  C 
  C73      1.0000 0.81563  0.50000  0.23249  Biso   1.000  C 
  N6       1.0000 0.87133  0.45581  0.21241  Biso   1.000  N 
  H76      1.0000 0.77872  0.50000  0.13051  Biso   1.000  H 
  C74      1.0000 0.76752  0.50000  0.18442  Biso   1.000  C 
  C75      1.0000 0.70501  0.50000  0.20500  Biso   1.000  C 
  C76      1.0000 0.68442  0.50000  0.26751  Biso   1.000  C 
  C77      1.0000 0.73249  0.50000  0.31563  Biso   1.000  C 
  H77      1.0000 0.72128  0.50000  0.36954  Biso   1.000  H 
  H78      1.0000 0.63051  0.50000  0.27872  Biso   1.000  H 
  O47      1.0000 0.59530  0.50000  0.17046  Biso   1.000  O 
  C78      1.0000 0.65361  0.50000  0.15360  Biso   1.000  C 
  O48      1.0000 0.67047  0.50000  0.09529  Biso   1.000  O 
  H79      1.0000 0.91171  0.44713  0.23990  Biso   1.000  H 
  C79      1.0000 0.83734  0.39460  0.19179  Biso   1.000  C 
  H80      1.0000 0.78620  0.39370  0.20213  Biso   1.000  H 
  C80      1.0000 0.85479  0.33323  0.23102  Biso   1.000  C 
  C81      1.0000 0.83915  0.38852  0.11953  Biso   1.000  C 
  C82      1.0000 0.85382  0.27215  0.12368  Biso   1.000  C 
  C83      1.0000 0.84766  0.26598  0.19669  Biso   1.000  C 
  H81      1.0000 0.82452  0.33256  0.26860  Biso   1.000  H 
  H82      1.0000 0.89863  0.34428  0.25373  Biso   1.000  H 
  H83      1.0000 0.88109  0.22843  0.21190  Biso   1.000  H 
  H84      1.0000 0.79907  0.24702  0.20757  Biso   1.000  H 
  C84      1.0000 0.88377  0.33586  0.10272  Biso   1.000  C 
  H85      1.0000 0.92501  0.34339  0.13241  Biso   1.000  H 
  H86      1.0000 0.90056  0.34517  0.05439  Biso   1.000  H 
  H87      1.0000 0.78951  0.37636  0.10374  Biso   1.000  H 
  H88      1.0000 0.87942  0.23068  0.10285  Biso   1.000  H 
  H89      1.0000 0.85395  0.43437  0.09621  Biso   1.000  H 
  H90      1.0000 0.80204  0.27008  0.11163  Biso   1.000  H 
  C85      1.0000 0.34640  0.00000  0.34640  Biso   1.000  C 
  O49      1.0000 0.32954  0.00000  0.40471  Biso   1.000  O 
  O50      1.0000 0.40471  0.00000  0.32954  Biso   1.000  O 
  C86      1.0000 0.29500  0.00000  0.29500  Biso   1.000  C 
  C87      1.0000 0.31563  0.00000  0.23249  Biso   1.000  C 
  N7       1.0000 0.37965  0.97160  0.21545  Biso   1.000  N 
  H91      1.0000 0.27872  0.00000  0.13051  Biso   1.000  H 
  C88      1.0000 0.26751  0.00000  0.18442  Biso   1.000  C 
  C89      1.0000 0.20500  0.00000  0.20500  Biso   1.000  C 
  C90      1.0000 0.18442  0.00000  0.26751  Biso   1.000  C 
  C91      1.0000 0.23249  0.00000  0.31563  Biso   1.000  C 
  H92      1.0000 0.22128  0.00000  0.36954  Biso   1.000  H 
  H93      1.0000 0.13051  0.00000  0.27872  Biso   1.000  H 
  O51      1.0000 0.09530  0.00000  0.17046  Biso   1.000  O 
  C92      1.0000 0.15360  0.00000  0.15360  Biso   1.000  C 
  O52      1.0000 0.17046  0.00000  0.09529  Biso   1.000  O 
  H94      1.0000 0.41190  0.00586  0.19414  Biso   1.000  H 
  C93      1.0000 0.35944  0.91433  0.17783  Biso   1.000  C 
  H95      1.0000 0.30836  0.90431  0.16807  Biso   1.000  H 
  C94      1.0000 0.36400  0.85801  0.22364  Biso   1.000  C 
  C95      1.0000 0.37772  0.91283  0.10707  Biso   1.000  C 
  C96      1.0000 0.36648  0.79237  0.12218  Biso   1.000  C 
  C97      1.0000 0.35788  0.79237  0.19384  Biso   1.000  C 
  H96      1.0000 0.32201  0.86431  0.25302  Biso   1.000  H 
  H97      1.0000 0.40325  0.86631  0.25444  Biso   1.000  H 
  H98      1.0000 0.39340  0.76416  0.21476  Biso   1.000  H 
  H99      1.0000 0.31104  0.76895  0.20416  Biso   1.000  H 
  C98      1.0000 0.40839  0.85013  0.09673  Biso   1.000  C 
  H100     1.0000 0.45171  0.85895  0.12547  Biso   1.000  H 
  H101     1.0000 0.42615  0.84563  0.04680  Biso   1.000  H 
  H102     1.0000 0.33757  0.92032  0.07169  Biso   1.000  H 
  H103     1.0000 0.38411  0.74490  0.10478  Biso   1.000  H 
  H104     1.0000 0.41178  0.94948  0.09947  Biso   1.000  H 
  H105     1.0000 0.31565  0.80028  0.10936  Biso   1.000  H 
  C99      1.0000 0.34640  0.50000  0.84640  Biso   1.000  C 
  O53      1.0000 0.32954  0.50000  0.90471  Biso   1.000  O 
  O54      1.0000 0.40471  0.50000  0.82954  Biso   1.000  O 
  C100     1.0000 0.29500  0.50000  0.79500  Biso   1.000  C 
  C101     1.0000 0.31563  0.50000  0.73249  Biso   1.000  C 
  N8       1.0000 0.37006  0.45137  0.71476  Biso   1.000  N 
  H106     1.0000 0.27872  0.50000  0.63051  Biso   1.000  H 
  C102     1.0000 0.26751  0.50000  0.68442  Biso   1.000  C 
  C103     1.0000 0.20500  0.50000  0.70500  Biso   1.000  C 
  C104     1.0000 0.18442  0.50000  0.76751  Biso   1.000  C 
  C105     1.0000 0.23249  0.50000  0.81563  Biso   1.000  C 
  H107     1.0000 0.22128  0.50000  0.86954  Biso   1.000  H 
  H108     1.0000 0.13051  0.50000  0.77872  Biso   1.000  H 
  O55      1.0000 0.09530  0.50000  0.67046  Biso   1.000  O 
  C106     1.0000 0.15360  0.50000  0.65360  Biso   1.000  C 
  O56      1.0000 0.17046  0.50000  0.59529  Biso   1.000  O 
  H109     1.0000 0.41074  0.44383  0.74358  Biso   1.000  H 
  C107     1.0000 0.33325  0.39141  0.69842  Biso   1.000  C 
  H110     1.0000 0.28216  0.39284  0.71117  Biso   1.000  H 
  C108     1.0000 0.35414  0.33277  0.73504  Biso   1.000  C 
  C109     1.0000 0.33634  0.38416  0.62444  Biso   1.000  C 
  C110     1.0000 0.36045  0.26884  0.63150  Biso   1.000  C 
  C111     1.0000 0.35014  0.26608  0.70117  Biso   1.000  C 
  H111     1.0000 0.32551  0.33382  0.77266  Biso   1.000  H 
  H112     1.0000 0.39836  0.34296  0.75508  Biso   1.000  H 
  H113     1.0000 0.38664  0.23422  0.72004  Biso   1.000  H 
  H114     1.0000 0.30398  0.24218  0.70949  Biso   1.000  H 
  C112     1.0000 0.38646  0.33308  0.61123  Biso   1.000  C 
  H115     1.0000 0.42534  0.34526  0.64297  Biso   1.000  H 
  H116     1.0000 0.40696  0.33849  0.56339  Biso   1.000  H 
  H117     1.0000 0.28774  0.36955  0.60928  Biso   1.000  H 
  H118     1.0000 0.39506  0.23095  0.61626  Biso   1.000  H 
  H119     1.0000 0.34703  0.43036  0.60135  Biso   1.000  H 
  H120     1.0000 0.31256  0.25941  0.61140  Biso   1.000  H 
  C113     1.0000 0.84640  0.15360  0.00000  Biso   1.000  C 
  O57      1.0000 0.90471  0.17046  0.00000  Biso   1.000  O 
  O58      1.0000 0.82954  0.09529  0.00000  Biso   1.000  O 
  C114     1.0000 0.79500  0.20500  0.00000  Biso   1.000  C 
  C115     1.0000 0.73249  0.18437  0.00000  Biso   1.000  C 
  N9       1.0000 0.71453  0.11560  0.00157  Biso   1.000  N 
  H121     1.0000 0.63051  0.22128  0.00000  Biso   1.000  H 
  C116     1.0000 0.68442  0.23249  0.00000  Biso   1.000  C 
  C117     1.0000 0.70500  0.29500  0.00000  Biso   1.000  C 
  C118     1.0000 0.76751  0.31558  0.00000  Biso   1.000  C 
  C119     1.0000 0.81563  0.26751  0.00000  Biso   1.000  C 
  H122     1.0000 0.86954  0.27872  0.00000  Biso   1.000  H 
  H123     1.0000 0.77872  0.36949  0.00000  Biso   1.000  H 
  O59      1.0000 0.67046  0.40470  0.00000  Biso   1.000  O 
  C120     1.0000 0.65360  0.34640  0.00000  Biso   1.000  C 
  O60      1.0000 0.59529  0.32954  0.00000  Biso   1.000  O 
  H124     1.0000 0.71201  0.09213  0.04728  Biso   1.000  H 
  C121     1.0000 0.66565  0.10882  0.95065  Biso   1.000  C 
  H125     1.0000 0.62610  0.13962  0.96096  Biso   1.000  H 
  C122     1.0000 0.63088  0.04553  0.96173  Biso   1.000  C 
  C123     1.0000 0.68534  0.13179  0.87815  Biso   1.000  C 
  C124     1.0000 0.56963  0.07593  0.85999  Biso   1.000  C 
  C125     1.0000 0.56719  0.04814  0.92471  Biso   1.000  C 
  H126     1.0000 0.62286  0.03995  0.01465  Biso   1.000  H 
  H127     1.0000 0.65993  0.00516  0.95018  Biso   1.000  H 
  H128     1.0000 0.53901  0.00130  0.92594  Biso   1.000  H 
  H129     1.0000 0.53757  0.08075  0.95497  Biso   1.000  H 
  C126     1.0000 0.62652  0.12072  0.83168  Biso   1.000  C 
  H130     1.0000 0.63913  0.10947  0.78218  Biso   1.000  H 
  H131     1.0000 0.60703  0.16985  0.83308  Biso   1.000  H 
  H132     1.0000 0.69705  0.18576  0.88194  Biso   1.000  H 
  H133     1.0000 0.55653  0.03878  0.82500  Biso   1.000  H 
  H134     1.0000 0.72879  0.10771  0.86447  Biso   1.000  H 
  H135     1.0000 0.53161  0.10726  0.86454  Biso   1.000  H 
  C127     1.0000 0.84640  0.65360  0.50000  Biso   1.000  C 
  O61      1.0000 0.90471  0.67046  0.50000  Biso   1.000  O 
  O62      1.0000 0.82954  0.59529  0.50000  Biso   1.000  O 
  C128     1.0000 0.79500  0.70500  0.50000  Biso   1.000  C 
  C129     1.0000 0.73249  0.68437  0.50000  Biso   1.000  C 
  N10      1.0000 0.71650  0.61383  0.48967  Biso   1.000  N 
  H136     1.0000 0.63051  0.72128  0.50000  Biso   1.000  H 
  C130     1.0000 0.68442  0.73248  0.50000  Biso   1.000  C 
  C131     1.0000 0.70500  0.79499  0.50000  Biso   1.000  C 
  C132     1.0000 0.76751  0.81558  0.50000  Biso   1.000  C 
  C133     1.0000 0.81563  0.76751  0.50000  Biso   1.000  C 
  H137     1.0000 0.86954  0.77872  0.50000  Biso   1.000  H 
  H138     1.0000 0.77872  0.86949  0.50000  Biso   1.000  H 
  O63      1.0000 0.67046  0.90470  0.50000  Biso   1.000  O 
  C134     1.0000 0.65360  0.84639  0.50000  Biso   1.000  C 
  O64      1.0000 0.59529  0.82953  0.50000  Biso   1.000  O 
  H139     1.0000 0.73786  0.59913  0.44639  Biso   1.000  H 
  C135     1.0000 0.64952  0.59566  0.47535  Biso   1.000  C 
  H140     1.0000 0.61899  0.61720  0.51208  Biso   1.000  H 
  C136     1.0000 0.64504  0.52267  0.47725  Biso   1.000  C 
  C137     1.0000 0.62821  0.62230  0.40787  Biso   1.000  C 
  C138     1.0000 0.54445  0.52903  0.41401  Biso   1.000  C 
  C139     1.0000 0.60494  0.49322  0.42628  Biso   1.000  C 
  H141     1.0000 0.62213  0.50911  0.52211  Biso   1.000  H 
  H142     1.0000 0.69373  0.50023  0.47259  Biso   1.000  H 
  H143     1.0000 0.62911  0.49392  0.38362  Biso   1.000  H 
  H144     1.0000 0.59759  0.44338  0.43829  Biso   1.000  H 
  C140     1.0000 0.56210  0.59461  0.38736  Biso   1.000  C 
  H145     1.0000 0.56634  0.58776  0.33634  Biso   1.000  H 
  H146     1.0000 0.52541  0.63164  0.39939  Biso   1.000  H 
  H147     1.0000 0.62358  0.67551  0.40207  Biso   1.000  H 
  H148     1.0000 0.51517  0.50420  0.37752  Biso   1.000  H 
  H149     1.0000 0.66381  0.60457  0.37161  Biso   1.000  H 
  H150     1.0000 0.51725  0.52634  0.46016  Biso   1.000  H 
  C141     1.0000 0.34640  0.15360  0.50000  Biso   1.000  C 
  O65      1.0000 0.40471  0.17046  0.50000  Biso   1.000  O 
  O66      1.0000 0.32954  0.09529  0.50000  Biso   1.000  O 
  C142     1.0000 0.29500  0.20500  0.50000  Biso   1.000  C 
  C143     1.0000 0.23249  0.18437  0.50000  Biso   1.000  C 
  N11      1.0000 0.21640  0.11349  0.48671  Biso   1.000  N 
  H151     1.0000 0.13051  0.22128  0.50000  Biso   1.000  H 
  C144     1.0000 0.18442  0.23249  0.50000  Biso   1.000  C 
  C145     1.0000 0.20500  0.29500  0.50000  Biso   1.000  C 
  C146     1.0000 0.26751  0.31558  0.50000  Biso   1.000  C 
  C147     1.0000 0.31563  0.26751  0.50000  Biso   1.000  C 
  H152     1.0000 0.36954  0.27872  0.50000  Biso   1.000  H 
  H153     1.0000 0.27872  0.36949  0.50000  Biso   1.000  H 
  O67      1.0000 0.17046  0.40470  0.50000  Biso   1.000  O 
  C148     1.0000 0.15360  0.34640  0.50000  Biso   1.000  C 
  O68      1.0000 0.09529  0.32954  0.50000  Biso   1.000  O 
  H154     1.0000 0.23992  0.09780  0.44485  Biso   1.000  H 
  C149     1.0000 0.14762  0.09873  0.47370  Biso   1.000  C 
  H155     1.0000 0.11400  0.12651  0.50525  Biso   1.000  H 
  C150     1.0000 0.13402  0.03083  0.49962  Biso   1.000  C 
  C151     1.0000 0.13160  0.11012  0.40021  Biso   1.000  C 
  C152     1.0000 0.04547  0.02042  0.41241  Biso   1.000  C 
  C153     1.0000 0.09802  0.98835  0.45240  Biso   1.000  C 
  H156     1.0000 0.10781  0.03302  0.54678  Biso   1.000  H 
  H157     1.0000 0.18050  0.00470  0.50765  Biso   1.000  H 
  H158     1.0000 0.13618  0.97776  0.41893  Biso   1.000  H 
  H159     1.0000 0.08333  0.94336  0.47189  Biso   1.000  H 
  C154     1.0000 0.06226  0.08963  0.39380  Biso   1.000  C 
  H160     1.0000 0.05645  0.08993  0.34205  Biso   1.000  H 
  H161     1.0000 0.03206  0.12657  0.41842  Biso   1.000  H 
  H162     1.0000 0.13873  0.16218  0.38880  Biso   1.000  H 
  H163     1.0000 0.03681  0.98974  0.36913  Biso   1.000  H 
  H164     1.0000 0.16208  0.08168  0.36895  Biso   1.000  H 
  H165     1.0000 0.00051  0.02178  0.44108  Biso   1.000  H 
  C155     1.0000 0.34640  0.65360  0.00000  Biso   1.000  C 
  O69      1.0000 0.40471  0.67046  0.00000  Biso   1.000  O 
  O70      1.0000 0.32954  0.59529  0.00000  Biso   1.000  O 
  C156     1.0000 0.29500  0.70500  0.00000  Biso   1.000  C 
  C157     1.0000 0.23249  0.68437  0.00000  Biso   1.000  C 
  N12      1.0000 0.21396  0.61322  0.98915  Biso   1.000  N 
  H166     1.0000 0.13051  0.72128  0.00000  Biso   1.000  H 
  C158     1.0000 0.18442  0.73248  0.00000  Biso   1.000  C 
  C159     1.0000 0.20500  0.79499  0.00000  Biso   1.000  C 
  C160     1.0000 0.26751  0.81558  0.00000  Biso   1.000  C 
  C161     1.0000 0.31563  0.76751  0.00000  Biso   1.000  C 
  H167     1.0000 0.36954  0.77872  0.00000  Biso   1.000  H 
  H168     1.0000 0.27872  0.86949  0.00000  Biso   1.000  H 
  O71      1.0000 0.17046  0.90470  0.00000  Biso   1.000  O 
  C162     1.0000 0.15360  0.84639  0.00000  Biso   1.000  C 
  O72      1.0000 0.09529  0.82953  0.00000  Biso   1.000  O 
  H169     1.0000 0.23834  0.59978  0.94640  Biso   1.000  H 
  C163     1.0000 0.14641  0.59555  0.97595  Biso   1.000  C 
  H170     1.0000 0.11588  0.61490  0.01344  Biso   1.000  H 
  C164     1.0000 0.13998  0.52057  0.97433  Biso   1.000  C 
  C165     1.0000 0.12777  0.61617  0.90763  Biso   1.000  C 
  C166     1.0000 0.03739  0.53204  0.91200  Biso   1.000  C 
  C167     1.0000 0.09670  0.49099  0.92313  Biso   1.000  C 
  H171     1.0000 0.11686  0.50884  0.01914  Biso   1.000  H 
  H172     1.0000 0.18857  0.49876  0.97162  Biso   1.000  H 
  H173     1.0000 0.12082  0.49534  0.87850  Biso   1.000  H 
  H174     1.0000 0.08171  0.44173  0.92667  Biso   1.000  H 
  C168     1.0000 0.05938  0.59676  0.88570  Biso   1.000  C 
  H175     1.0000 0.06526  0.59085  0.83243  Biso   1.000  H 
  H176     1.0000 0.02909  0.63780  0.89996  Biso   1.000  H 
  H177     1.0000 0.13639  0.66790  0.90077  Biso   1.000  H 
  H178     1.0000 0.00590  0.50899  0.87636  Biso   1.000  H 
  H179     1.0000 0.15835  0.59077  0.87172  Biso   1.000  H 
  H180     1.0000 0.01370  0.53416  0.95880  Biso   1.000  H 
  C169     1.0000 0.84640  0.84640  0.00000  Biso   1.000  C 
  O73      1.0000 0.90471  0.82954  0.00000  Biso   1.000  O 
  O74      1.0000 0.82954  0.90471  0.00000  Biso   1.000  O 
  C170     1.0000 0.79500  0.79500  0.00000  Biso   1.000  C 
  C171     1.0000 0.73249  0.81563  0.00000  Biso   1.000  C 
  N13      1.0000 0.70986  0.87923  0.97882  Biso   1.000  N 
  H181     1.0000 0.63051  0.77872  0.00000  Biso   1.000  H 
  C172     1.0000 0.68442  0.76752  0.00000  Biso   1.000  C 
  C173     1.0000 0.70500  0.70501  0.00000  Biso   1.000  C 
  C174     1.0000 0.76751  0.68442  0.00000  Biso   1.000  C 
  C175     1.0000 0.81563  0.73249  0.00000  Biso   1.000  C 
  H182     1.0000 0.86954  0.72128  0.00000  Biso   1.000  H 
  H183     1.0000 0.77872  0.63051  0.00000  Biso   1.000  H 
  O75      1.0000 0.67046  0.59530  0.00000  Biso   1.000  O 
  C176     1.0000 0.65360  0.65361  0.00000  Biso   1.000  C 
  O76      1.0000 0.59529  0.67047  0.00000  Biso   1.000  O 
  H184     1.0000 0.68577  0.91175  0.01188  Biso   1.000  H 
  C177     1.0000 0.67636  0.86506  0.91542  Biso   1.000  C 
  H185     1.0000 0.66661  0.81259  0.90520  Biso   1.000  H 
  C178     1.0000 0.71963  0.86699  0.85821  Biso   1.000  C 
  C179     1.0000 0.60446  0.88207  0.90957  Biso   1.000  C 
  C180     1.0000 0.61987  0.86685  0.79109  Biso   1.000  C 
  C181     1.0000 0.69166  0.85209  0.79053  Biso   1.000  C 
  H186     1.0000 0.75435  0.83139  0.87036  Biso   1.000  H 
  H187     1.0000 0.74819  0.90585  0.86353  Biso   1.000  H 
  H188     1.0000 0.71634  0.87913  0.75328  Biso   1.000  H 
  H189     1.0000 0.69867  0.80150  0.78080  Biso   1.000  H 
  C182     1.0000 0.59389  0.91033  0.84521  Biso   1.000  C 
  H190     1.0000 0.62701  0.95038  0.85569  Biso   1.000  H 
  H191     1.0000 0.54544  0.93021  0.83977  Biso   1.000  H 
  H192     1.0000 0.57077  0.83866  0.91668  Biso   1.000  H 
  H193     1.0000 0.60512  0.88537  0.74243  Biso   1.000  H 
  H194     1.0000 0.58724  0.91656  0.94522  Biso   1.000  H 
  H195     1.0000 0.60480  0.81666  0.80027  Biso   1.000  H 
  C183     1.0000 0.84640  0.34640  0.50000  Biso   1.000  C 
  O77      1.0000 0.90471  0.32954  0.50000  Biso   1.000  O 
  O78      1.0000 0.82954  0.40471  0.50000  Biso   1.000  O 
  C184     1.0000 0.79500  0.29500  0.50000  Biso   1.000  C 
  C185     1.0000 0.73249  0.31563  0.50000  Biso   1.000  C 
  N14      1.0000 0.71362  0.37033  0.45189  Biso   1.000  N 
  H196     1.0000 0.63051  0.27872  0.50000  Biso   1.000  H 
  C186     1.0000 0.68442  0.26751  0.50000  Biso   1.000  C 
  C187     1.0000 0.70500  0.20500  0.50000  Biso   1.000  C 
  C188     1.0000 0.76751  0.18442  0.50000  Biso   1.000  C 
  C189     1.0000 0.81563  0.23249  0.50000  Biso   1.000  C 
  H197     1.0000 0.86954  0.22128  0.50000  Biso   1.000  H 
  H198     1.0000 0.77872  0.13051  0.50000  Biso   1.000  H 
  O79      1.0000 0.67046  0.09530  0.50000  Biso   1.000  O 
  C190     1.0000 0.65360  0.15360  0.50000  Biso   1.000  C 
  O80      1.0000 0.59529  0.17046  0.50000  Biso   1.000  O 
  H199     1.0000 0.74797  0.40337  0.43669  Biso   1.000  H 
  C191     1.0000 0.69208  0.33193  0.39277  Biso   1.000  C 
  H200     1.0000 0.69723  0.27937  0.39496  Biso   1.000  H 
  C192     1.0000 0.73344  0.33830  0.33438  Biso   1.000  C 
  C193     1.0000 0.61978  0.33384  0.37763  Biso   1.000  C 
  C194     1.0000 0.63615  0.35370  0.26014  Biso   1.000  C 
  C195     1.0000 0.69812  0.31515  0.27164  Biso   1.000  C 
  H201     1.0000 0.77698  0.31400  0.34627  Biso   1.000  H 
  H202     1.0000 0.74778  0.38778  0.32691  Biso   1.000  H 
  H203     1.0000 0.72547  0.32130  0.22827  Biso   1.000  H 
  H204     1.0000 0.68516  0.26269  0.27836  Biso   1.000  H 
  C196     1.0000 0.61144  0.38168  0.32361  Biso   1.000  C 
  H205     1.0000 0.64638  0.41651  0.33472  Biso   1.000  H 
  H206     1.0000 0.56654  0.41085  0.32507  Biso   1.000  H 
  H207     1.0000 0.60480  0.28525  0.36272  Biso   1.000  H 
  H208     1.0000 0.63928  0.38976  0.22160  Biso   1.000  H 
  H209     1.0000 0.59368  0.34623  0.42215  Biso   1.000  H 
  H210     1.0000 0.60834  0.31534  0.24070  Biso   1.000  H 
  C197     1.0000 0.34640  0.84640  0.50000  Biso   1.000  C 
  O81      1.0000 0.40471  0.82954  0.50000  Biso   1.000  O 
  O82      1.0000 0.32954  0.90471  0.50000  Biso   1.000  O 
  C198     1.0000 0.29500  0.79500  0.50000  Biso   1.000  C 
  C199     1.0000 0.23249  0.81563  0.50000  Biso   1.000  C 
  N15      1.0000 0.21137  0.87270  0.45899  Biso   1.000  N 
  H211     1.0000 0.13051  0.77872  0.50000  Biso   1.000  H 
  C200     1.0000 0.18442  0.76752  0.50000  Biso   1.000  C 
  C201     1.0000 0.20500  0.70501  0.50000  Biso   1.000  C 
  C202     1.0000 0.26751  0.68442  0.50000  Biso   1.000  C 
  C203     1.0000 0.31563  0.73249  0.50000  Biso   1.000  C 
  H212     1.0000 0.36954  0.72128  0.50000  Biso   1.000  H 
  H213     1.0000 0.27872  0.63051  0.50000  Biso   1.000  H 
  O83      1.0000 0.17046  0.59530  0.50000  Biso   1.000  O 
  C204     1.0000 0.15360  0.65361  0.50000  Biso   1.000  C 
  O84      1.0000 0.09529  0.67047  0.50000  Biso   1.000  O 
  H214     1.0000 0.23936  0.91426  0.45038  Biso   1.000  H 
  C205     1.0000 0.19351  0.84179  0.39614  Biso   1.000  C 
  H215     1.0000 0.20437  0.78852  0.39356  Biso   1.000  H 
  C206     1.0000 0.23460  0.86230  0.33913  Biso   1.000  C 
  C207     1.0000 0.12060  0.83852  0.38826  Biso   1.000  C 
  C208     1.0000 0.12932  0.85746  0.26876  Biso   1.000  C 
  C209     1.0000 0.20368  0.85110  0.27051  Biso   1.000  C 
  H216     1.0000 0.27375  0.83162  0.34042  Biso   1.000  H 
  H217     1.0000 0.25693  0.90409  0.35389  Biso   1.000  H 
  H218     1.0000 0.22295  0.88508  0.23480  Biso   1.000  H 
  H219     1.0000 0.21712  0.80208  0.25499  Biso   1.000  H 
  C210     1.0000 0.10308  0.88219  0.33448  Biso   1.000  C 
  H220     1.0000 0.12853  0.92552  0.34265  Biso   1.000  H 
  H221     1.0000 0.05297  0.89092  0.34864  Biso   1.000  H 
  H222     1.0000 0.10894  0.78647  0.37417  Biso   1.000  H 
  H223     1.0000 0.10973  0.88297  0.22725  Biso   1.000  H 
  H224     1.0000 0.09337  0.84791  0.43164  Biso   1.000  H 
  H225     1.0000 0.11531  0.80671  0.26597  Biso   1.000  H 
  C211     1.0000 0.34640  0.34640  0.00000  Biso   1.000  C 
  O85      1.0000 0.40471  0.32954  0.00000  Biso   1.000  O 
  O86      1.0000 0.32954  0.40471  0.00000  Biso   1.000  O 
  C212     1.0000 0.29500  0.29500  0.00000  Biso   1.000  C 
  C213     1.0000 0.23249  0.31563  0.00000  Biso   1.000  C 
  N16      1.0000 0.21222  0.36804  0.95050  Biso   1.000  N 
  H226     1.0000 0.13051  0.27872  0.00000  Biso   1.000  H 
  C214     1.0000 0.18442  0.26751  0.00000  Biso   1.000  C 
  C215     1.0000 0.20500  0.20500  0.00000  Biso   1.000  C 
  C216     1.0000 0.26751  0.18442  0.00000  Biso   1.000  C 
  C217     1.0000 0.31563  0.23249  0.00000  Biso   1.000  C 
  H227     1.0000 0.36954  0.22128  0.00000  Biso   1.000  H 
  H228     1.0000 0.27872  0.13051  0.00000  Biso   1.000  H 
  O87      1.0000 0.17046  0.09530  0.00000  Biso   1.000  O 
  C218     1.0000 0.15360  0.15360  0.00000  Biso   1.000  C 
  O88      1.0000 0.09529  0.17046  0.00000  Biso   1.000  O 
  H229     1.0000 0.24308  0.40659  0.94186  Biso   1.000  H 
  C219     1.0000 0.19258  0.33148  0.89015  Biso   1.000  C 
  H230     1.0000 0.19353  0.28108  0.89488  Biso   1.000  H 
  C220     1.0000 0.23625  0.33816  0.83571  Biso   1.000  C 
  C221     1.0000 0.12039  0.33359  0.87338  Biso   1.000  C 
  C222     1.0000 0.14508  0.35318  0.75434  Biso   1.000  C 
  C223     1.0000 0.20174  0.30983  0.77434  Biso   1.000  C 
  H231     1.0000 0.27865  0.31639  0.85223  Biso   1.000  H 
  H232     1.0000 0.24837  0.38935  0.82557  Biso   1.000  H 
  H233     1.0000 0.22984  0.30377  0.73143  Biso   1.000  H 
  H234     1.0000 0.18243  0.26098  0.78642  Biso   1.000  H 
  C224     1.0000 0.11475  0.38016  0.81531  Biso   1.000  C 
  H235     1.0000 0.14776  0.41486  0.83254  Biso   1.000  H 
  H236     1.0000 0.07388  0.40873  0.81086  Biso   1.000  H 
  H237     1.0000 0.10476  0.28539  0.86043  Biso   1.000  H 
  H238     1.0000 0.16409  0.39015  0.72301  Biso   1.000  H 
  H239     1.0000 0.09403  0.34603  0.91702  Biso   1.000  H 
  H240     1.0000 0.11599  0.31984  0.72440  Biso   1.000  H 
  C225     1.0000 0.00000  0.84640  0.15360  Biso   1.000  C 
  O89      1.0000 0.00000  0.90471  0.17046  Biso   1.000  O 
  O90      1.0000 0.00000  0.82954  0.09529  Biso   1.000  O 
  C226     1.0000 0.00000  0.79500  0.20500  Biso   1.000  C 
  C227     1.0000 0.00000  0.73249  0.18437  Biso   1.000  C 
  N17      1.0000 0.98899  0.71494  0.11390  Biso   1.000  N 
  H241     1.0000 0.00000  0.63051  0.22128  Biso   1.000  H 
  C228     1.0000 0.00000  0.68442  0.23249  Biso   1.000  C 
  C229     1.0000 0.00000  0.70500  0.29500  Biso   1.000  C 
  C230     1.0000 0.00000  0.76751  0.31558  Biso   1.000  C 
  C231     1.0000 0.00000  0.81563  0.26751  Biso   1.000  C 
  H242     1.0000 0.00000  0.86954  0.27872  Biso   1.000  H 
  H243     1.0000 0.00000  0.77872  0.36949  Biso   1.000  H 
  O91      1.0000 0.00000  0.67046  0.40470  Biso   1.000  O 
  C232     1.0000 0.00000  0.65360  0.34640  Biso   1.000  C 
  O92      1.0000 0.00000  0.59529  0.32954  Biso   1.000  O 
  H244     1.0000 0.94643  0.73931  0.10215  Biso   1.000  H 
  C233     1.0000 0.97206  0.64881  0.10168  Biso   1.000  C 
  H245     1.0000 0.00824  0.61601  0.12406  Biso   1.000  H 
  C234     1.0000 0.98018  0.63709  0.02960  Biso   1.000  C 
  C235     1.0000 0.90124  0.63598  0.12604  Biso   1.000  C 
  C236     1.0000 0.90059  0.54622  0.03518  Biso   1.000  C 
  C237     1.0000 0.92411  0.60479  0.99953  Biso   1.000  C 
  H246     1.0000 0.02120  0.60483  0.02683  Biso   1.000  H 
  H247     1.0000 0.99388  0.67962  0.00202  Biso   1.000  H 
  H248     1.0000 0.88246  0.63213  0.00271  Biso   1.000  H 
  H249     1.0000 0.93477  0.59810  0.94740  Biso   1.000  H 
  C238     1.0000 0.87689  0.57065  0.10378  Biso   1.000  C 
  H250     1.0000 0.82396  0.57866  0.10241  Biso   1.000  H 
  H251     1.0000 0.89055  0.53957  0.14349  Biso   1.000  H 
  H252     1.0000 0.89687  0.64023  0.17951  Biso   1.000  H 
  H253     1.0000 0.85853  0.52244  0.00982  Biso   1.000  H 
  H254     1.0000 0.86594  0.67090  0.10535  Biso   1.000  H 
  H255     1.0000 0.94105  0.51448  0.03729  Biso   1.000  H 
  C239     1.0000 0.00000  0.34640  0.65360  Biso   1.000  C 
  O93      1.0000 0.00000  0.40471  0.67046  Biso   1.000  O 
  O94      1.0000 0.00000  0.32954  0.59529  Biso   1.000  O 
  C240     1.0000 0.00000  0.29500  0.70500  Biso   1.000  C 
  C241     1.0000 0.00000  0.23249  0.68437  Biso   1.000  C 
  N18      1.0000 0.98576  0.21379  0.61361  Biso   1.000  N 
  H256     1.0000 0.00000  0.13051  0.72128  Biso   1.000  H 
  C242     1.0000 0.00000  0.18442  0.73248  Biso   1.000  C 
  C243     1.0000 0.00000  0.20500  0.79499  Biso   1.000  C 
  C244     1.0000 0.00000  0.26751  0.81558  Biso   1.000  C 
  C245     1.0000 0.00000  0.31563  0.76751  Biso   1.000  C 
  H257     1.0000 0.00000  0.36954  0.77872  Biso   1.000  H 
  H258     1.0000 0.00000  0.27872  0.86949  Biso   1.000  H 
  O95      1.0000 0.00000  0.17046  0.90470  Biso   1.000  O 
  C246     1.0000 0.00000  0.15360  0.84639  Biso   1.000  C 
  O96      1.0000 0.00000  0.09529  0.82953  Biso   1.000  O 
  H259     1.0000 0.95000  0.24213  0.59164  Biso   1.000  H 
  C247     1.0000 0.95551  0.15165  0.60799  Biso   1.000  C 
  H260     1.0000 0.98140  0.11285  0.63251  Biso   1.000  H 
  C248     1.0000 0.95552  0.12259  0.54009  Biso   1.000  C 
  C249     1.0000 0.88821  0.15736  0.63199  Biso   1.000  C 
  C250     1.0000 0.89033  0.03958  0.59613  Biso   1.000  C 
  C251     1.0000 0.90759  0.06721  0.53292  Biso   1.000  C 
  H261     1.0000 0.00341  0.10129  0.53027  Biso   1.000  H 
  H262     1.0000 0.94436  0.16123  0.50549  Biso   1.000  H 
  H263     1.0000 0.86247  0.08631  0.51948  Biso   1.000  H 
  H264     1.0000 0.92044  0.02686  0.49925  Biso   1.000  H 
  C252     1.0000 0.85912  0.09320  0.64114  Biso   1.000  C 
  H265     1.0000 0.80705  0.10132  0.63354  Biso   1.000  H 
  H266     1.0000 0.86985  0.08498  0.69210  Biso   1.000  H 
  H267     1.0000 0.88442  0.18512  0.67825  Biso   1.000  H 
  H268     1.0000 0.85966  0.00042  0.58102  Biso   1.000  H 
  H269     1.0000 0.85781  0.18225  0.59593  Biso   1.000  H 
  H270     1.0000 0.93551  0.01788  0.61824  Biso   1.000  H 
  C253     1.0000 0.50000  0.84640  0.65360  Biso   1.000  C 
  O97      1.0000 0.50000  0.90471  0.67046  Biso   1.000  O 
  O98      1.0000 0.50000  0.82954  0.59529  Biso   1.000  O 
  C254     1.0000 0.50000  0.79500  0.70500  Biso   1.000  C 
  C255     1.0000 0.50000  0.73249  0.68437  Biso   1.000  C 
  N19      1.0000 0.48634  0.71468  0.61434  Biso   1.000  N 
  H271     1.0000 0.50000  0.63051  0.72128  Biso   1.000  H 
  C256     1.0000 0.50000  0.68442  0.73248  Biso   1.000  C 
  C257     1.0000 0.50000  0.70500  0.79499  Biso   1.000  C 
  C258     1.0000 0.50000  0.76751  0.81558  Biso   1.000  C 
  C259     1.0000 0.50000  0.81563  0.76751  Biso   1.000  C 
  H272     1.0000 0.50000  0.86954  0.77872  Biso   1.000  H 
  H273     1.0000 0.50000  0.77872  0.86949  Biso   1.000  H 
  O99      1.0000 0.50000  0.67046  0.90470  Biso   1.000  O 
  C260     1.0000 0.50000  0.65360  0.84639  Biso   1.000  C 
  O100     1.0000 0.50000  0.59529  0.82953  Biso   1.000  O 
  H274     1.0000 0.44448  0.73920  0.60011  Biso   1.000  H 
  C261     1.0000 0.47527  0.64557  0.59985  Biso   1.000  C 
  H275     1.0000 0.51256  0.61393  0.62338  Biso   1.000  H 
  C262     1.0000 0.47910  0.63609  0.52661  Biso   1.000  C 
  C263     1.0000 0.40794  0.62704  0.62381  Biso   1.000  C 
  C264     1.0000 0.39197  0.54576  0.52775  Biso   1.000  C 
  C265     1.0000 0.42479  0.59730  0.49157  Biso   1.000  C 
  H276     1.0000 0.52393  0.60889  0.52170  Biso   1.000  H 
  H277     1.0000 0.48333  0.68334  0.50086  Biso   1.000  H 
  H278     1.0000 0.38693  0.62867  0.48483  Biso   1.000  H 
  H279     1.0000 0.43915  0.57956  0.44584  Biso   1.000  H 
  C266     1.0000 0.38216  0.56464  0.59735  Biso   1.000  C 
  H280     1.0000 0.33096  0.57339  0.60391  Biso   1.000  H 
  H281     1.0000 0.39724  0.52523  0.63046  Biso   1.000  H 
  H282     1.0000 0.40474  0.62500  0.67713  Biso   1.000  H 
  H283     1.0000 0.34576  0.53168  0.50260  Biso   1.000  H 
  H284     1.0000 0.37297  0.66325  0.60739  Biso   1.000  H 
  H285     1.0000 0.42392  0.50377  0.52674  Biso   1.000  H 
  C267     1.0000 0.50000  0.34640  0.15360  Biso   1.000  C 
  O101     1.0000 0.50000  0.40471  0.17046  Biso   1.000  O 
  O102     1.0000 0.50000  0.32954  0.09529  Biso   1.000  O 
  C268     1.0000 0.50000  0.29500  0.20500  Biso   1.000  C 
  C269     1.0000 0.50000  0.23249  0.18437  Biso   1.000  C 
  N20      1.0000 0.49004  0.21577  0.11613  Biso   1.000  N 
  H286     1.0000 0.50000  0.13051  0.22128  Biso   1.000  H 
  C270     1.0000 0.50000  0.18442  0.23249  Biso   1.000  C 
  C271     1.0000 0.50000  0.20500  0.29500  Biso   1.000  C 
  C272     1.0000 0.50000  0.26751  0.31558  Biso   1.000  C 
  C273     1.0000 0.50000  0.31563  0.26751  Biso   1.000  C 
  H287     1.0000 0.50000  0.36954  0.27872  Biso   1.000  H 
  H288     1.0000 0.50000  0.27872  0.36949  Biso   1.000  H 
  O103     1.0000 0.50000  0.17046  0.40470  Biso   1.000  O 
  C274     1.0000 0.50000  0.15360  0.34640  Biso   1.000  C 
  O104     1.0000 0.50000  0.09529  0.32954  Biso   1.000  O 
  H289     1.0000 0.53024  0.20364  0.09332  Biso   1.000  H 
  C275     1.0000 0.44141  0.16339  0.11277  Biso   1.000  C 
  H290     1.0000 0.45432  0.12446  0.14020  Biso   1.000  H 
  C276     1.0000 0.44674  0.13371  0.04735  Biso   1.000  C 
  C277     1.0000 0.37603  0.18682  0.14040  Biso   1.000  C 
  C278     1.0000 0.35281  0.07541  0.09004  Biso   1.000  C 
  C279     1.0000 0.41555  0.07306  0.04865  Biso   1.000  C 
  H291     1.0000 0.50185  0.11765  0.05001  Biso   1.000  H 
  H292     1.0000 0.43845  0.15640  0.00113  Biso   1.000  H 
  H293     1.0000 0.40888  0.05195  0.00105  Biso   1.000  H 
  H294     1.0000 0.44904  0.03994  0.06684  Biso   1.000  H 
  C280     1.0000 0.32941  0.13300  0.13522  Biso   1.000  C 
  H295     1.0000 0.28417  0.15573  0.11386  Biso   1.000  H 
  H296     1.0000 0.31520  0.11747  0.18375  Biso   1.000  H 
  H297     1.0000 0.38089  0.20052  0.19197  Biso   1.000  H 
  H298     1.0000 0.31272  0.05937  0.05707  Biso   1.000  H 
  H299     1.0000 0.35680  0.22640  0.11237  Biso   1.000  H 
  H300     1.0000 0.36159  0.03951  0.12343  Biso   1.000  H 
  C281     1.0000 0.00000  0.84640  0.84640  Biso   1.000  C 
  O105     1.0000 0.00000  0.90471  0.82954  Biso   1.000  O 
  O106     1.0000 0.00000  0.82954  0.90471  Biso   1.000  O 
  C282     1.0000 0.00000  0.79500  0.79500  Biso   1.000  C 
  C283     1.0000 0.00000  0.73249  0.81563  Biso   1.000  C 
  N21      1.0000 0.95063  0.71310  0.86961  Biso   1.000  N 
  H301     1.0000 0.00000  0.63051  0.77872  Biso   1.000  H 
  C284     1.0000 0.00000  0.68442  0.76752  Biso   1.000  C 
  C285     1.0000 0.00000  0.70500  0.70501  Biso   1.000  C 
  C286     1.0000 0.00000  0.76751  0.68442  Biso   1.000  C 
  C287     1.0000 0.00000  0.81563  0.73249  Biso   1.000  C 
  H302     1.0000 0.00000  0.86954  0.72128  Biso   1.000  H 
  H303     1.0000 0.00000  0.77872  0.63051  Biso   1.000  H 
  O107     1.0000 0.00000  0.67046  0.59530  Biso   1.000  O 
  C288     1.0000 0.00000  0.65360  0.65361  Biso   1.000  C 
  O108     1.0000 0.00000  0.59529  0.67047  Biso   1.000  O 
  H304     1.0000 0.94761  0.73788  0.91306  Biso   1.000  H 
  C289     1.0000 0.89090  0.70550  0.83114  Biso   1.000  C 
  H305     1.0000 0.89400  0.72746  0.78201  Biso   1.000  H 
  C290     1.0000 0.83399  0.74332  0.85704  Biso   1.000  C 
  C291     1.0000 0.88078  0.63297  0.81989  Biso   1.000  C 
  C292     1.0000 0.76728  0.63443  0.85375  Biso   1.000  C 
  C293     1.0000 0.76580  0.70883  0.85355  Biso   1.000  C 
  H306     1.0000 0.83091  0.78524  0.83089  Biso   1.000  H 
  H307     1.0000 0.84821  0.76349  0.90232  Biso   1.000  H 
  H308     1.0000 0.73411  0.72804  0.88916  Biso   1.000  H 
  H309     1.0000 0.74219  0.72029  0.80836  Biso   1.000  H 
  C294     1.0000 0.83491  0.61236  0.87303  Biso   1.000  C 
  H310     1.0000 0.84236  0.64014  0.91506  Biso   1.000  H 
  H311     1.0000 0.84595  0.56287  0.88908  Biso   1.000  H 
  H312     1.0000 0.86421  0.62286  0.76878  Biso   1.000  H 
  H313     1.0000 0.73370  0.61588  0.89094  Biso   1.000  H 
  H314     1.0000 0.92263  0.60019  0.83076  Biso   1.000  H 
  H315     1.0000 0.75360  0.61850  0.80376  Biso   1.000  H 
  C295     1.0000 0.00000  0.34640  0.34640  Biso   1.000  C 
  O109     1.0000 0.00000  0.40471  0.32954  Biso   1.000  O 
  O110     1.0000 0.00000  0.32954  0.40471  Biso   1.000  O 
  C296     1.0000 0.00000  0.29500  0.29500  Biso   1.000  C 
  C297     1.0000 0.00000  0.23249  0.31563  Biso   1.000  C 
  N22      1.0000 0.96747  0.20872  0.37701  Biso   1.000  N 
  H316     1.0000 0.00000  0.13051  0.27872  Biso   1.000  H 
  C298     1.0000 0.00000  0.18442  0.26751  Biso   1.000  C 
  C299     1.0000 0.00000  0.20500  0.20500  Biso   1.000  C 
  C300     1.0000 0.00000  0.26751  0.18442  Biso   1.000  C 
  C301     1.0000 0.00000  0.31563  0.23249  Biso   1.000  C 
  H317     1.0000 0.00000  0.36954  0.22128  Biso   1.000  H 
  H318     1.0000 0.00000  0.27872  0.13051  Biso   1.000  H 
  O111     1.0000 0.00000  0.17046  0.09530  Biso   1.000  O 
  C302     1.0000 0.00000  0.15360  0.15360  Biso   1.000  C 
  O112     1.0000 0.00000  0.09529  0.17046  Biso   1.000  O 
  H319     1.0000 0.96341  0.23406  0.42068  Biso   1.000  H 
  C303     1.0000 0.90831  0.17871  0.35466  Biso   1.000  C 
  H320     1.0000 0.90046  0.16947  0.30291  Biso   1.000  H 
  C304     1.0000 0.85652  0.22968  0.35559  Biso   1.000  C 
  C305     1.0000 0.90120  0.10717  0.37468  Biso   1.000  C 
  C306     1.0000 0.78611  0.13007  0.35066  Biso   1.000  C 
  C307     1.0000 0.79121  0.20124  0.34658  Biso   1.000  C 
  H321     1.0000 0.86837  0.26156  0.31853  Biso   1.000  H 
  H322     1.0000 0.86065  0.25727  0.39974  Biso   1.000  H 
  H323     1.0000 0.76189  0.21475  0.38520  Biso   1.000  H 
  H324     1.0000 0.77135  0.21547  0.29989  Biso   1.000  H 
  C308     1.0000 0.83571  0.10553  0.40124  Biso   1.000  C 
  H325     1.0000 0.84758  0.13932  0.43775  Biso   1.000  H 
  H326     1.0000 0.82425  0.05951  0.42464  Biso   1.000  H 
  H327     1.0000 0.91041  0.07192  0.33678  Biso   1.000  H 
  H328     1.0000 0.73369  0.11834  0.35935  Biso   1.000  H 
  H329     1.0000 0.93446  0.09501  0.41380  Biso   1.000  H 
  H330     1.0000 0.79868  0.11473  0.30051  Biso   1.000  H 
  C309     1.0000 0.50000  0.84640  0.34640  Biso   1.000  C 
  O113     1.0000 0.50000  0.90471  0.32954  Biso   1.000  O 
  O114     1.0000 0.50000  0.82954  0.40471  Biso   1.000  O 
  C310     1.0000 0.50000  0.79500  0.29500  Biso   1.000  C 
  C311     1.0000 0.50000  0.73249  0.31563  Biso   1.000  C 
  N23      1.0000 0.45102  0.71364  0.36796  Biso   1.000  N 
  H331     1.0000 0.50000  0.63051  0.27872  Biso   1.000  H 
  C312     1.0000 0.50000  0.68442  0.26751  Biso   1.000  C 
  C313     1.0000 0.50000  0.70500  0.20500  Biso   1.000  C 
  C314     1.0000 0.50000  0.76751  0.18442  Biso   1.000  C 
  C315     1.0000 0.50000  0.81563  0.23249  Biso   1.000  C 
  H332     1.0000 0.50000  0.86954  0.22128  Biso   1.000  H 
  H333     1.0000 0.50000  0.77872  0.13051  Biso   1.000  H 
  O115     1.0000 0.50000  0.67046  0.09530  Biso   1.000  O 
  C316     1.0000 0.50000  0.65360  0.15360  Biso   1.000  C 
  O116     1.0000 0.50000  0.59529  0.17046  Biso   1.000  O 
  H334     1.0000 0.44281  0.74304  0.40682  Biso   1.000  H 
  C317     1.0000 0.39008  0.69404  0.33383  Biso   1.000  C 
  H335     1.0000 0.39476  0.69676  0.28128  Biso   1.000  H 
  C318     1.0000 0.33447  0.73774  0.34160  Biso   1.000  C 
  C319     1.0000 0.37679  0.62329  0.33720  Biso   1.000  C 
  C320     1.0000 0.26036  0.63976  0.35387  Biso   1.000  C 
  C321     1.0000 0.27514  0.70122  0.31649  Biso   1.000  C 
  H336     1.0000 0.34804  0.78204  0.31462  Biso   1.000  H 
  H337     1.0000 0.32780  0.75467  0.38923  Biso   1.000  H 
  H338     1.0000 0.23194  0.73040  0.32249  Biso   1.000  H 
  H339     1.0000 0.28377  0.69053  0.26567  Biso   1.000  H 
  C322     1.0000 0.32115  0.61175  0.38039  Biso   1.000  C 
  H340     1.0000 0.32915  0.64726  0.41381  Biso   1.000  H 
  H341     1.0000 0.32732  0.56725  0.40642  Biso   1.000  H 
  H342     1.0000 0.36403  0.60757  0.28925  Biso   1.000  H 
  H343     1.0000 0.22471  0.64908  0.39248  Biso   1.000  H 
  H344     1.0000 0.42118  0.59714  0.35137  Biso   1.000  H 
  H345     1.0000 0.23573  0.61323  0.31557  Biso   1.000  H 
  C323     1.0000 0.50000  0.34640  0.84640  Biso   1.000  C 
  O117     1.0000 0.50000  0.40471  0.82954  Biso   1.000  O 
  O118     1.0000 0.50000  0.32954  0.90471  Biso   1.000  O 
  C324     1.0000 0.50000  0.29500  0.79500  Biso   1.000  C 
  C325     1.0000 0.50000  0.23249  0.81563  Biso   1.000  C 
  N24      1.0000 0.47303  0.21465  0.87992  Biso   1.000  N 
  H346     1.0000 0.50000  0.13051  0.77872  Biso   1.000  H 
  C326     1.0000 0.50000  0.18442  0.76752  Biso   1.000  C 
  C327     1.0000 0.50000  0.20500  0.70501  Biso   1.000  C 
  C328     1.0000 0.50000  0.26751  0.68442  Biso   1.000  C 
  C329     1.0000 0.50000  0.31563  0.73249  Biso   1.000  C 
  H347     1.0000 0.50000  0.36954  0.72128  Biso   1.000  H 
  H348     1.0000 0.50000  0.27872  0.63051  Biso   1.000  H 
  O119     1.0000 0.50000  0.17046  0.59530  Biso   1.000  O 
  C330     1.0000 0.50000  0.15360  0.65361  Biso   1.000  C 
  O120     1.0000 0.50000  0.09529  0.67047  Biso   1.000  O 
  H349     1.0000 0.50579  0.19304  0.91279  Biso   1.000  H 
  C331     1.0000 0.41172  0.18060  0.86139  Biso   1.000  C 
  H350     1.0000 0.40330  0.17493  0.80925  Biso   1.000  H 
  C332     1.0000 0.35855  0.22908  0.86827  Biso   1.000  C 
  C333     1.0000 0.40759  0.10820  0.87895  Biso   1.000  C 
  C334     1.0000 0.29089  0.12609  0.86258  Biso   1.000  C 
  C335     1.0000 0.29505  0.19919  0.85774  Biso   1.000  C 
  H351     1.0000 0.36554  0.25905  0.82787  Biso   1.000  H 
  H352     1.0000 0.36828  0.26212  0.90545  Biso   1.000  H 
  H353     1.0000 0.26254  0.21769  0.89159  Biso   1.000  H 
  H354     1.0000 0.27531  0.21080  0.81016  Biso   1.000  H 
  C336     1.0000 0.34440  0.09435  0.90343  Biso   1.000  C 
  H355     1.0000 0.34904  0.12512  0.94442  Biso   1.000  H 
  H356     1.0000 0.34380  0.04407  0.92176  Biso   1.000  H 
  H357     1.0000 0.41273  0.07882  0.83376  Biso   1.000  H 
  H358     1.0000 0.24107  0.11293  0.88248  Biso   1.000  H 
  H359     1.0000 0.44385  0.09415  0.91258  Biso   1.000  H 
  H360     1.0000 0.29605  0.11212  0.81104  Biso   1.000  H 
