data_image0
_cell_length_a       26.896
_cell_length_b       26.896
_cell_length_c       26.896
_cell_angle_alpha    90
_cell_angle_beta     90
_cell_angle_gamma    90

_symmetry_space_group_name_H-M    "P 1"
_symmetry_int_tables_number       1

loop_
  _symmetry_equiv_pos_as_xyz
  'x, y, z'

loop_
  _atom_site_label
  _atom_site_occupancy
  _atom_site_fract_x
  _atom_site_fract_y
  _atom_site_fract_z
  _atom_site_thermal_displace_type
  _atom_site_B_iso_or_equiv
  _atom_site_type_symbol
  Zr1      1.0000 0.09204  0.00000  0.00000  Biso   1.000  Zr
  Zr2      1.0000 0.90796  0.00000  0.00000  Biso   1.000  Zr
  Zr3      1.0000 0.00000  0.09204  0.00000  Biso   1.000  Zr
  Zr4      1.0000 0.00000  0.90796  0.00000  Biso   1.000  Zr
  Zr5      1.0000 0.00000  0.00000  0.09204  Biso   1.000  Zr
  Zr6      1.0000 0.00000  0.00000  0.90796  Biso   1.000  Zr
  Zr7      1.0000 0.09204  0.50000  0.50000  Biso   1.000  Zr
  Zr8      1.0000 0.90796  0.50000  0.50000  Biso   1.000  Zr
  Zr9      1.0000 0.00000  0.59204  0.50000  Biso   1.000  Zr
  Zr10     1.0000 0.00000  0.40796  0.50000  Biso   1.000  Zr
  Zr11     1.0000 0.00000  0.50000  0.59204  Biso   1.000  Zr
  Zr12     1.0000 0.00000  0.50000  0.40796  Biso   1.000  Zr
  Zr13     1.0000 0.59204  0.00000  0.50000  Biso   1.000  Zr
  Zr14     1.0000 0.40796  0.00000  0.50000  Biso   1.000  Zr
  Zr15     1.0000 0.50000  0.09204  0.50000  Biso   1.000  Zr
  Zr16     1.0000 0.50000  0.90796  0.50000  Biso   1.000  Zr
  Zr17     1.0000 0.50000  0.00000  0.59204  Biso   1.000  Zr
  Zr18     1.0000 0.50000  0.00000  0.40796  Biso   1.000  Zr
  Zr19     1.0000 0.59204  0.50000  0.00000  Biso   1.000  Zr
  Zr20     1.0000 0.40796  0.50000  0.00000  Biso   1.000  Zr
  Zr21     1.0000 0.50000  0.59204  0.00000  Biso   1.000  Zr
  Zr22     1.0000 0.50000  0.40796  0.00000  Biso   1.000  Zr
  Zr23     1.0000 0.50000  0.50000  0.09204  Biso   1.000  Zr
  Zr24     1.0000 0.50000  0.50000  0.90796  Biso   1.000  Zr
  O1       1.0000 0.04540  0.04540  0.04540  Biso   1.000  O 
  O2       1.0000 0.95460  0.95460  0.04540  Biso   1.000  O 
  O3       1.0000 0.95460  0.04540  0.95460  Biso   1.000  O 
  O4       1.0000 0.04540  0.95460  0.95460  Biso   1.000  O 
  O5       1.0000 0.04540  0.04540  0.95460  Biso   1.000  O 
  O6       1.0000 0.95460  0.95460  0.95460  Biso   1.000  O 
  O7       1.0000 0.04540  0.95460  0.04540  Biso   1.000  O 
  O8       1.0000 0.95460  0.04540  0.04540  Biso   1.000  O 
  O9       1.0000 0.04540  0.54540  0.54540  Biso   1.000  O 
  O10      1.0000 0.95460  0.45460  0.54540  Biso   1.000  O 
  O11      1.0000 0.95460  0.54540  0.45460  Biso   1.000  O 
  O12      1.0000 0.04540  0.45460  0.45460  Biso   1.000  O 
  O13      1.0000 0.04540  0.54540  0.45460  Biso   1.000  O 
  O14      1.0000 0.95460  0.45460  0.45460  Biso   1.000  O 
  O15      1.0000 0.04540  0.45460  0.54540  Biso   1.000  O 
  O16      1.0000 0.95460  0.54540  0.54540  Biso   1.000  O 
  O17      1.0000 0.54540  0.04540  0.54540  Biso   1.000  O 
  O18      1.0000 0.45460  0.95460  0.54540  Biso   1.000  O 
  O19      1.0000 0.45460  0.04540  0.45460  Biso   1.000  O 
  O20      1.0000 0.54540  0.95460  0.45460  Biso   1.000  O 
  O21      1.0000 0.54540  0.04540  0.45460  Biso   1.000  O 
  O22      1.0000 0.45460  0.95460  0.45460  Biso   1.000  O 
  O23      1.0000 0.54540  0.95460  0.54540  Biso   1.000  O 
  O24      1.0000 0.45460  0.04540  0.54540  Biso   1.000  O 
  O25      1.0000 0.54540  0.54540  0.04540  Biso   1.000  O 
  O26      1.0000 0.45460  0.45460  0.04540  Biso   1.000  O 
  O27      1.0000 0.45460  0.54540  0.95460  Biso   1.000  O 
  O28      1.0000 0.54540  0.45460  0.95460  Biso   1.000  O 
  O29      1.0000 0.54540  0.54540  0.95460  Biso   1.000  O 
  O30      1.0000 0.45460  0.45460  0.95460  Biso   1.000  O 
  O31      1.0000 0.54540  0.45460  0.04540  Biso   1.000  O 
  O32      1.0000 0.45460  0.54540  0.04540  Biso   1.000  O 
  O33      1.0000 0.13260  0.00000  0.07190  Biso   1.000  O 
  C1       1.0000 0.11720  0.00000  0.11720  Biso   1.000  C 
  O34      1.0000 0.07190  0.00000  0.13260  Biso   1.000  O 
  C2       1.0000 0.15650  0.00000  0.15650  Biso   1.000  C 
  C3       1.0000 0.20580  0.00000  0.14470  Biso   1.000  C 
  C4       1.0000 0.14470  0.00000  0.20580  Biso   1.000  C 
  C5       1.0000 0.24200  0.00000  0.17950  Biso   1.000  C 
  H1       1.0000 0.21490  0.00000  0.11140  Biso   1.000  H 
  C6       1.0000 0.17950  0.00000  0.24200  Biso   1.000  C 
  H2       1.0000 0.11140  0.00000  0.21490  Biso   1.000  H 
  C7       1.0000 0.23070  0.00000  0.23070  Biso   1.000  C 
  C8       1.0000 0.26930  0.00000  0.26930  Biso   1.000  C 
  H3       1.0000 0.27510  0.00000  0.16950  Biso   1.000  H 
  C9       1.0000 0.32050  0.00000  0.25800  Biso   1.000  C 
  H4       1.0000 0.16950  0.00000  0.27510  Biso   1.000  H 
  C10      1.0000 0.25800  0.00000  0.32050  Biso   1.000  C 
  C11      1.0000 0.35530  0.00000  0.29420  Biso   1.000  C 
  N1       1.0000 0.33850  0.02100  0.20845  Biso   1.000  N 
  C12      1.0000 0.29420  0.00000  0.35530  Biso   1.000  C 
  H5       1.0000 0.22490  0.00000  0.33050  Biso   1.000  H 
  C13      1.0000 0.34350  0.00000  0.34350  Biso   1.000  C 
  C14      1.0000 0.38280  0.00000  0.38280  Biso   1.000  C 
  H6       1.0000 0.38860  0.00000  0.28510  Biso   1.000  H 
  H7       1.0000 0.28510  0.00000  0.38860  Biso   1.000  H 
  O35      1.0000 0.42810  0.00000  0.36740  Biso   1.000  O 
  O36      1.0000 0.36740  0.00000  0.42810  Biso   1.000  O 
  H8       1.0000 0.35311  0.05667  0.21387  Biso   1.000  H 
  C15      1.0000 0.37352  0.98965  0.17930  Biso   1.000  C 
  C16      1.0000 0.37837  0.01145  0.12678  Biso   1.000  C 
  C17      1.0000 0.40902  0.05991  0.12483  Biso   1.000  C 
  H9       1.0000 0.39561  0.09194  0.15049  Biso   1.000  H 
  C18      1.0000 0.40655  0.08067  0.07031  Biso   1.000  C 
  H10      1.0000 0.44806  0.04870  0.13372  Biso   1.000  H 
  H11      1.0000 0.36123  0.95054  0.17756  Biso   1.000  H 
  H12      1.0000 0.41063  0.99105  0.19704  Biso   1.000  H 
  H13      1.0000 0.33977  0.01896  0.11033  Biso   1.000  H 
  H14      1.0000 0.39769  0.98194  0.10396  Biso   1.000  H 
  H15      1.0000 0.43116  0.11301  0.06457  Biso   1.000  H 
  H16      1.0000 0.36782  0.09358  0.06488  Biso   1.000  H 
  H17      1.0000 0.41622  0.05228  0.04079  Biso   1.000  H 
  O37      1.0000 0.86740  0.00000  0.07190  Biso   1.000  O 
  C19      1.0000 0.88280  0.00000  0.11720  Biso   1.000  C 
  O38      1.0000 0.92810  0.00000  0.13260  Biso   1.000  O 
  C20      1.0000 0.84350  0.00000  0.15650  Biso   1.000  C 
  C21      1.0000 0.79420  0.00000  0.14470  Biso   1.000  C 
  C22      1.0000 0.85530  0.00000  0.20580  Biso   1.000  C 
  C23      1.0000 0.75800  0.00000  0.17950  Biso   1.000  C 
  H18      1.0000 0.78510  0.00000  0.11140  Biso   1.000  H 
  C24      1.0000 0.82050  0.00000  0.24200  Biso   1.000  C 
  H19      1.0000 0.88860  0.00000  0.21490  Biso   1.000  H 
  C25      1.0000 0.76930  0.00000  0.23070  Biso   1.000  C 
  C26      1.0000 0.73070  0.00000  0.26930  Biso   1.000  C 
  H20      1.0000 0.72490  0.00000  0.16950  Biso   1.000  H 
  C27      1.0000 0.67950  0.00000  0.25800  Biso   1.000  C 
  H21      1.0000 0.83050  0.00000  0.27510  Biso   1.000  H 
  C28      1.0000 0.74200  0.00000  0.32050  Biso   1.000  C 
  C29      1.0000 0.64470  0.00000  0.29420  Biso   1.000  C 
  N2       1.0000 0.66150  0.97900  0.20845  Biso   1.000  N 
  C30      1.0000 0.70580  0.00000  0.35530  Biso   1.000  C 
  H22      1.0000 0.77510  0.00000  0.33050  Biso   1.000  H 
  C31      1.0000 0.65650  0.00000  0.34350  Biso   1.000  C 
  C32      1.0000 0.61720  0.00000  0.38280  Biso   1.000  C 
  H23      1.0000 0.61140  0.00000  0.28510  Biso   1.000  H 
  H24      1.0000 0.71490  0.00000  0.38860  Biso   1.000  H 
  O39      1.0000 0.57190  0.00000  0.36740  Biso   1.000  O 
  O40      1.0000 0.63260  0.00000  0.42810  Biso   1.000  O 
  H25      1.0000 0.64689  0.94333  0.21387  Biso   1.000  H 
  C33      1.0000 0.62648  0.01035  0.17930  Biso   1.000  C 
  C34      1.0000 0.62163  0.98855  0.12678  Biso   1.000  C 
  C35      1.0000 0.59098  0.94009  0.12483  Biso   1.000  C 
  H26      1.0000 0.60439  0.90806  0.15049  Biso   1.000  H 
  C36      1.0000 0.59345  0.91933  0.07031  Biso   1.000  C 
  H27      1.0000 0.55194  0.95130  0.13372  Biso   1.000  H 
  H28      1.0000 0.63876  0.04946  0.17756  Biso   1.000  H 
  H29      1.0000 0.58937  0.00895  0.19704  Biso   1.000  H 
  H30      1.0000 0.66022  0.98104  0.11033  Biso   1.000  H 
  H31      1.0000 0.60231  0.01806  0.10396  Biso   1.000  H 
  H32      1.0000 0.56884  0.88699  0.06457  Biso   1.000  H 
  H33      1.0000 0.63218  0.90642  0.06488  Biso   1.000  H 
  H34      1.0000 0.58378  0.94772  0.04079  Biso   1.000  H 
  O41      1.0000 0.86740  0.00000  0.92810  Biso   1.000  O 
  C37      1.0000 0.88280  0.00000  0.88280  Biso   1.000  C 
  O42      1.0000 0.92810  0.00000  0.86740  Biso   1.000  O 
  C38      1.0000 0.84350  0.00000  0.84350  Biso   1.000  C 
  C39      1.0000 0.79420  0.00000  0.85530  Biso   1.000  C 
  C40      1.0000 0.85530  0.00000  0.79420  Biso   1.000  C 
  C41      1.0000 0.75800  0.00000  0.82050  Biso   1.000  C 
  H35      1.0000 0.78510  0.00000  0.88860  Biso   1.000  H 
  C42      1.0000 0.82050  0.00000  0.75800  Biso   1.000  C 
  H36      1.0000 0.88860  0.00000  0.78510  Biso   1.000  H 
  C43      1.0000 0.76930  0.00000  0.76930  Biso   1.000  C 
  C44      1.0000 0.73070  0.00000  0.73070  Biso   1.000  C 
  H37      1.0000 0.72490  0.00000  0.83050  Biso   1.000  H 
  C45      1.0000 0.67950  0.00000  0.74200  Biso   1.000  C 
  H38      1.0000 0.83050  0.00000  0.72490  Biso   1.000  H 
  C46      1.0000 0.74200  0.00000  0.67950  Biso   1.000  C 
  C47      1.0000 0.64470  0.00000  0.70580  Biso   1.000  C 
  N3       1.0000 0.66150  0.02100  0.79155  Biso   1.000  N 
  C48      1.0000 0.70580  0.00000  0.64470  Biso   1.000  C 
  H39      1.0000 0.77510  0.00000  0.66950  Biso   1.000  H 
  C49      1.0000 0.65650  0.00000  0.65650  Biso   1.000  C 
  C50      1.0000 0.61720  0.00000  0.61720  Biso   1.000  C 
  H40      1.0000 0.61140  0.00000  0.71490  Biso   1.000  H 
  H41      1.0000 0.71490  0.00000  0.61140  Biso   1.000  H 
  O43      1.0000 0.57190  0.00000  0.63260  Biso   1.000  O 
  O44      1.0000 0.63260  0.00000  0.57190  Biso   1.000  O 
  H42      1.0000 0.64689  0.05667  0.78613  Biso   1.000  H 
  C51      1.0000 0.62648  0.98965  0.82069  Biso   1.000  C 
  C52      1.0000 0.62163  0.01145  0.87323  Biso   1.000  C 
  C53      1.0000 0.59098  0.05991  0.87517  Biso   1.000  C 
  H43      1.0000 0.60439  0.09194  0.84951  Biso   1.000  H 
  C54      1.0000 0.59345  0.08067  0.92968  Biso   1.000  C 
  H44      1.0000 0.55194  0.04870  0.86628  Biso   1.000  H 
  H45      1.0000 0.63876  0.95054  0.82243  Biso   1.000  H 
  H46      1.0000 0.58937  0.99105  0.80296  Biso   1.000  H 
  H47      1.0000 0.66022  0.01896  0.88967  Biso   1.000  H 
  H48      1.0000 0.60231  0.98194  0.89604  Biso   1.000  H 
  H49      1.0000 0.56884  0.11301  0.93543  Biso   1.000  H 
  H50      1.0000 0.63218  0.09358  0.93512  Biso   1.000  H 
  H51      1.0000 0.58378  0.05228  0.95921  Biso   1.000  H 
  O45      1.0000 0.13260  0.00000  0.92810  Biso   1.000  O 
  C55      1.0000 0.11720  0.00000  0.88280  Biso   1.000  C 
  O46      1.0000 0.07190  0.00000  0.86740  Biso   1.000  O 
  C56      1.0000 0.15650  0.00000  0.84350  Biso   1.000  C 
  C57      1.0000 0.20580  0.00000  0.85530  Biso   1.000  C 
  C58      1.0000 0.14470  0.00000  0.79420  Biso   1.000  C 
  C59      1.0000 0.24200  0.00000  0.82050  Biso   1.000  C 
  H52      1.0000 0.21490  0.00000  0.88860  Biso   1.000  H 
  C60      1.0000 0.17950  0.00000  0.75800  Biso   1.000  C 
  H53      1.0000 0.11140  0.00000  0.78510  Biso   1.000  H 
  C61      1.0000 0.23070  0.00000  0.76930  Biso   1.000  C 
  C62      1.0000 0.26930  0.00000  0.73070  Biso   1.000  C 
  H54      1.0000 0.27510  0.00000  0.83050  Biso   1.000  H 
  C63      1.0000 0.32050  0.00000  0.74200  Biso   1.000  C 
  H55      1.0000 0.16950  0.00000  0.72490  Biso   1.000  H 
  C64      1.0000 0.25800  0.00000  0.67950  Biso   1.000  C 
  C65      1.0000 0.35530  0.00000  0.70580  Biso   1.000  C 
  N4       1.0000 0.33850  0.97900  0.79155  Biso   1.000  N 
  C66      1.0000 0.29420  0.00000  0.64470  Biso   1.000  C 
  H56      1.0000 0.22490  0.00000  0.66950  Biso   1.000  H 
  C67      1.0000 0.34350  0.00000  0.65650  Biso   1.000  C 
  C68      1.0000 0.38280  0.00000  0.61720  Biso   1.000  C 
  H57      1.0000 0.38860  0.00000  0.71490  Biso   1.000  H 
  H58      1.0000 0.28510  0.00000  0.61140  Biso   1.000  H 
  O47      1.0000 0.42810  0.00000  0.63260  Biso   1.000  O 
  O48      1.0000 0.36740  0.00000  0.57190  Biso   1.000  O 
  H59      1.0000 0.35311  0.94333  0.78613  Biso   1.000  H 
  C69      1.0000 0.37352  0.01035  0.82069  Biso   1.000  C 
  C70      1.0000 0.37837  0.98855  0.87323  Biso   1.000  C 
  C71      1.0000 0.40902  0.94009  0.87517  Biso   1.000  C 
  H60      1.0000 0.39561  0.90806  0.84951  Biso   1.000  H 
  C72      1.0000 0.40655  0.91933  0.92968  Biso   1.000  C 
  H61      1.0000 0.44806  0.95130  0.86628  Biso   1.000  H 
  H62      1.0000 0.36123  0.04946  0.82243  Biso   1.000  H 
  H63      1.0000 0.41063  0.00895  0.80296  Biso   1.000  H 
  H64      1.0000 0.33977  0.98104  0.88967  Biso   1.000  H 
  H65      1.0000 0.39769  0.01806  0.89604  Biso   1.000  H 
  H66      1.0000 0.43116  0.88699  0.93543  Biso   1.000  H 
  H67      1.0000 0.36782  0.90642  0.93512  Biso   1.000  H 
  H68      1.0000 0.41622  0.94772  0.95921  Biso   1.000  H 
  O49      1.0000 0.07190  0.13260  0.00000  Biso   1.000  O 
  C73      1.0000 0.11720  0.11720  0.00000  Biso   1.000  C 
  O50      1.0000 0.13260  0.07190  0.00000  Biso   1.000  O 
  C74      1.0000 0.15650  0.15650  0.00000  Biso   1.000  C 
  C75      1.0000 0.14470  0.20580  0.00000  Biso   1.000  C 
  C76      1.0000 0.20580  0.14470  0.00000  Biso   1.000  C 
  C77      1.0000 0.17950  0.24200  0.00000  Biso   1.000  C 
  H69      1.0000 0.11140  0.21490  0.00000  Biso   1.000  H 
  C78      1.0000 0.24200  0.17950  0.00000  Biso   1.000  C 
  H70      1.0000 0.21490  0.11140  0.00000  Biso   1.000  H 
  C79      1.0000 0.23070  0.23070  0.00000  Biso   1.000  C 
  C80      1.0000 0.26930  0.26930  0.00000  Biso   1.000  C 
  H71      1.0000 0.16950  0.27510  0.00000  Biso   1.000  H 
  C81      1.0000 0.25800  0.32050  0.00000  Biso   1.000  C 
  H72      1.0000 0.27510  0.16950  0.00000  Biso   1.000  H 
  C82      1.0000 0.32050  0.25800  0.00000  Biso   1.000  C 
  C83      1.0000 0.29420  0.35530  0.00000  Biso   1.000  C 
  N5       1.0000 0.20711  0.34075  0.98558  Biso   1.000  N 
  C84      1.0000 0.35530  0.29420  0.00000  Biso   1.000  C 
  H73      1.0000 0.33050  0.22490  0.00000  Biso   1.000  H 
  C85      1.0000 0.34350  0.34350  0.00000  Biso   1.000  C 
  C86      1.0000 0.38280  0.38280  0.00000  Biso   1.000  C 
  H74      1.0000 0.28510  0.38860  0.00000  Biso   1.000  H 
  H75      1.0000 0.38860  0.28510  0.00000  Biso   1.000  H 
  O51      1.0000 0.36740  0.42810  0.00000  Biso   1.000  O 
  O52      1.0000 0.42810  0.36740  0.00000  Biso   1.000  O 
  H76      1.0000 0.19463  0.36416  0.01416  Biso   1.000  H 
  C87      1.0000 0.21162  0.36926  0.93902  Biso   1.000  C 
  C88      1.0000 0.17226  0.35303  0.90302  Biso   1.000  C 
  C89      1.0000 0.18336  0.37575  0.85219  Biso   1.000  C 
  H77      1.0000 0.18394  0.41675  0.85496  Biso   1.000  H 
  C90      1.0000 0.14378  0.36017  0.81607  Biso   1.000  C 
  H78      1.0000 0.21994  0.36250  0.83756  Biso   1.000  H 
  H79      1.0000 0.24807  0.36281  0.91965  Biso   1.000  H 
  H80      1.0000 0.20743  0.40956  0.94672  Biso   1.000  H 
  H81      1.0000 0.13584  0.36684  0.91655  Biso   1.000  H 
  H82      1.0000 0.17099  0.31190  0.90060  Biso   1.000  H 
  H83      1.0000 0.10665  0.37340  0.82858  Biso   1.000  H 
  H84      1.0000 0.14343  0.31883  0.81324  Biso   1.000  H 
  H85      1.0000 0.15228  0.37629  0.77905  Biso   1.000  H 
  O53      1.0000 0.07190  0.86740  0.00000  Biso   1.000  O 
  C91      1.0000 0.11720  0.88280  0.00000  Biso   1.000  C 
  O54      1.0000 0.13260  0.92810  0.00000  Biso   1.000  O 
  C92      1.0000 0.15650  0.84350  0.00000  Biso   1.000  C 
  C93      1.0000 0.14470  0.79420  0.00000  Biso   1.000  C 
  C94      1.0000 0.20580  0.85530  0.00000  Biso   1.000  C 
  C95      1.0000 0.17950  0.75800  0.00000  Biso   1.000  C 
  H86      1.0000 0.11140  0.78510  0.00000  Biso   1.000  H 
  C96      1.0000 0.24200  0.82050  0.00000  Biso   1.000  C 
  H87      1.0000 0.21490  0.88860  0.00000  Biso   1.000  H 
  C97      1.0000 0.23070  0.76930  0.00000  Biso   1.000  C 
  C98      1.0000 0.26930  0.73070  0.00000  Biso   1.000  C 
  H88      1.0000 0.16950  0.72490  0.00000  Biso   1.000  H 
  C99      1.0000 0.25800  0.67950  0.00000  Biso   1.000  C 
  H89      1.0000 0.27510  0.83050  0.00000  Biso   1.000  H 
  C100     1.0000 0.32050  0.74200  0.00000  Biso   1.000  C 
  C101     1.0000 0.29420  0.64470  0.00000  Biso   1.000  C 
  N6       1.0000 0.20711  0.65925  0.01442  Biso   1.000  N 
  C102     1.0000 0.35530  0.70580  0.00000  Biso   1.000  C 
  H90      1.0000 0.33050  0.77510  0.00000  Biso   1.000  H 
  C103     1.0000 0.34350  0.65650  0.00000  Biso   1.000  C 
  C104     1.0000 0.38280  0.61720  0.00000  Biso   1.000  C 
  H91      1.0000 0.28510  0.61140  0.00000  Biso   1.000  H 
  H92      1.0000 0.38860  0.71490  0.00000  Biso   1.000  H 
  O55      1.0000 0.36740  0.57190  0.00000  Biso   1.000  O 
  O56      1.0000 0.42810  0.63260  0.00000  Biso   1.000  O 
  H93      1.0000 0.19463  0.63583  0.98584  Biso   1.000  H 
  C105     1.0000 0.21162  0.63074  0.06098  Biso   1.000  C 
  C106     1.0000 0.17226  0.64697  0.09698  Biso   1.000  C 
  C107     1.0000 0.18336  0.62425  0.14781  Biso   1.000  C 
  H94      1.0000 0.18394  0.58325  0.14504  Biso   1.000  H 
  C108     1.0000 0.14378  0.63983  0.18393  Biso   1.000  C 
  H95      1.0000 0.21994  0.63750  0.16244  Biso   1.000  H 
  H96      1.0000 0.24807  0.63719  0.08035  Biso   1.000  H 
  H97      1.0000 0.20743  0.59044  0.05328  Biso   1.000  H 
  H98      1.0000 0.13584  0.63316  0.08345  Biso   1.000  H 
  H99      1.0000 0.17099  0.68810  0.09940  Biso   1.000  H 
  H100     1.0000 0.10665  0.62660  0.17142  Biso   1.000  H 
  H101     1.0000 0.14343  0.68116  0.18676  Biso   1.000  H 
  H102     1.0000 0.15228  0.62371  0.22095  Biso   1.000  H 
  O57      1.0000 0.92810  0.86740  0.00000  Biso   1.000  O 
  C109     1.0000 0.88280  0.88280  0.00000  Biso   1.000  C 
  O58      1.0000 0.86740  0.92810  0.00000  Biso   1.000  O 
  C110     1.0000 0.84350  0.84350  0.00000  Biso   1.000  C 
  C111     1.0000 0.85530  0.79420  0.00000  Biso   1.000  C 
  C112     1.0000 0.79420  0.85530  0.00000  Biso   1.000  C 
  C113     1.0000 0.82050  0.75800  0.00000  Biso   1.000  C 
  H103     1.0000 0.88860  0.78510  0.00000  Biso   1.000  H 
  C114     1.0000 0.75800  0.82050  0.00000  Biso   1.000  C 
  H104     1.0000 0.78510  0.88860  0.00000  Biso   1.000  H 
  C115     1.0000 0.76930  0.76930  0.00000  Biso   1.000  C 
  C116     1.0000 0.73070  0.73070  0.00000  Biso   1.000  C 
  H105     1.0000 0.83050  0.72490  0.00000  Biso   1.000  H 
  C117     1.0000 0.74200  0.67950  0.00000  Biso   1.000  C 
  H106     1.0000 0.72490  0.83050  0.00000  Biso   1.000  H 
  C118     1.0000 0.67950  0.74200  0.00000  Biso   1.000  C 
  C119     1.0000 0.70580  0.64470  0.00000  Biso   1.000  C 
  N7       1.0000 0.79289  0.65925  0.98558  Biso   1.000  N 
  C120     1.0000 0.64470  0.70580  0.00000  Biso   1.000  C 
  H107     1.0000 0.66950  0.77510  0.00000  Biso   1.000  H 
  C121     1.0000 0.65650  0.65650  0.00000  Biso   1.000  C 
  C122     1.0000 0.61720  0.61720  0.00000  Biso   1.000  C 
  H108     1.0000 0.71490  0.61140  0.00000  Biso   1.000  H 
  H109     1.0000 0.61140  0.71490  0.00000  Biso   1.000  H 
  O59      1.0000 0.63260  0.57190  0.00000  Biso   1.000  O 
  O60      1.0000 0.57190  0.63260  0.00000  Biso   1.000  O 
  H110     1.0000 0.80537  0.63583  0.01416  Biso   1.000  H 
  C123     1.0000 0.78838  0.63074  0.93902  Biso   1.000  C 
  C124     1.0000 0.82774  0.64697  0.90302  Biso   1.000  C 
  C125     1.0000 0.81663  0.62425  0.85219  Biso   1.000  C 
  H111     1.0000 0.81606  0.58325  0.85496  Biso   1.000  H 
  C126     1.0000 0.85622  0.63983  0.81607  Biso   1.000  C 
  H112     1.0000 0.78006  0.63750  0.83756  Biso   1.000  H 
  H113     1.0000 0.75193  0.63719  0.91965  Biso   1.000  H 
  H114     1.0000 0.79257  0.59044  0.94672  Biso   1.000  H 
  H115     1.0000 0.86417  0.63316  0.91655  Biso   1.000  H 
  H116     1.0000 0.82902  0.68810  0.90060  Biso   1.000  H 
  H117     1.0000 0.89334  0.62660  0.82858  Biso   1.000  H 
  H118     1.0000 0.85657  0.68116  0.81324  Biso   1.000  H 
  H119     1.0000 0.84772  0.62371  0.77905  Biso   1.000  H 
  O61      1.0000 0.92810  0.13260  0.00000  Biso   1.000  O 
  C127     1.0000 0.88280  0.11720  0.00000  Biso   1.000  C 
  O62      1.0000 0.86740  0.07190  0.00000  Biso   1.000  O 
  C128     1.0000 0.84350  0.15650  0.00000  Biso   1.000  C 
  C129     1.0000 0.85530  0.20580  0.00000  Biso   1.000  C 
  C130     1.0000 0.79420  0.14470  0.00000  Biso   1.000  C 
  C131     1.0000 0.82050  0.24200  0.00000  Biso   1.000  C 
  H120     1.0000 0.88860  0.21490  0.00000  Biso   1.000  H 
  C132     1.0000 0.75800  0.17950  0.00000  Biso   1.000  C 
  H121     1.0000 0.78510  0.11140  0.00000  Biso   1.000  H 
  C133     1.0000 0.76930  0.23070  0.00000  Biso   1.000  C 
  C134     1.0000 0.73070  0.26930  0.00000  Biso   1.000  C 
  H122     1.0000 0.83050  0.27510  0.00000  Biso   1.000  H 
  C135     1.0000 0.74200  0.32050  0.00000  Biso   1.000  C 
  H123     1.0000 0.72490  0.16950  0.00000  Biso   1.000  H 
  C136     1.0000 0.67950  0.25800  0.00000  Biso   1.000  C 
  C137     1.0000 0.70580  0.35530  0.00000  Biso   1.000  C 
  N8       1.0000 0.79289  0.34075  0.01442  Biso   1.000  N 
  C138     1.0000 0.64470  0.29420  0.00000  Biso   1.000  C 
  H124     1.0000 0.66950  0.22490  0.00000  Biso   1.000  H 
  C139     1.0000 0.65650  0.34350  0.00000  Biso   1.000  C 
  C140     1.0000 0.61720  0.38280  0.00000  Biso   1.000  C 
  H125     1.0000 0.71490  0.38860  0.00000  Biso   1.000  H 
  H126     1.0000 0.61140  0.28510  0.00000  Biso   1.000  H 
  O63      1.0000 0.63260  0.42810  0.00000  Biso   1.000  O 
  O64      1.0000 0.57190  0.36740  0.00000  Biso   1.000  O 
  H127     1.0000 0.80537  0.36416  0.98584  Biso   1.000  H 
  C141     1.0000 0.78838  0.36926  0.06098  Biso   1.000  C 
  C142     1.0000 0.82774  0.35303  0.09698  Biso   1.000  C 
  C143     1.0000 0.81663  0.37575  0.14781  Biso   1.000  C 
  H128     1.0000 0.81606  0.41675  0.14504  Biso   1.000  H 
  C144     1.0000 0.85622  0.36017  0.18393  Biso   1.000  C 
  H129     1.0000 0.78006  0.36250  0.16244  Biso   1.000  H 
  H130     1.0000 0.75193  0.36281  0.08035  Biso   1.000  H 
  H131     1.0000 0.79257  0.40956  0.05328  Biso   1.000  H 
  H132     1.0000 0.86417  0.36684  0.08345  Biso   1.000  H 
  H133     1.0000 0.82902  0.31190  0.09940  Biso   1.000  H 
  H134     1.0000 0.89334  0.37340  0.17142  Biso   1.000  H 
  H135     1.0000 0.85657  0.31883  0.18676  Biso   1.000  H 
  H136     1.0000 0.84772  0.37629  0.22095  Biso   1.000  H 
  O65      1.0000 0.00000  0.07190  0.13260  Biso   1.000  O 
  C145     1.0000 0.00000  0.11720  0.11720  Biso   1.000  C 
  O66      1.0000 0.00000  0.13260  0.07190  Biso   1.000  O 
  C146     1.0000 0.00000  0.15650  0.15650  Biso   1.000  C 
  C147     1.0000 0.00000  0.14470  0.20580  Biso   1.000  C 
  C148     1.0000 0.00000  0.20580  0.14470  Biso   1.000  C 
  C149     1.0000 0.00000  0.17950  0.24200  Biso   1.000  C 
  H137     1.0000 0.00000  0.11140  0.21490  Biso   1.000  H 
  C150     1.0000 0.00000  0.24200  0.17950  Biso   1.000  C 
  H138     1.0000 0.00000  0.21490  0.11140  Biso   1.000  H 
  C151     1.0000 0.00000  0.23070  0.23070  Biso   1.000  C 
  C152     1.0000 0.00000  0.26930  0.26930  Biso   1.000  C 
  H139     1.0000 0.00000  0.16950  0.27510  Biso   1.000  H 
  C153     1.0000 0.00000  0.25800  0.32050  Biso   1.000  C 
  H140     1.0000 0.00000  0.27510  0.16950  Biso   1.000  H 
  C154     1.0000 0.00000  0.32050  0.25800  Biso   1.000  C 
  C155     1.0000 0.00000  0.29420  0.35530  Biso   1.000  C 
  N9       1.0000 0.02799  0.21003  0.33641  Biso   1.000  N 
  C156     1.0000 0.00000  0.35530  0.29420  Biso   1.000  C 
  H141     1.0000 0.00000  0.33050  0.22490  Biso   1.000  H 
  C157     1.0000 0.00000  0.34350  0.34350  Biso   1.000  C 
  C158     1.0000 0.00000  0.38280  0.38280  Biso   1.000  C 
  H142     1.0000 0.00000  0.28510  0.38860  Biso   1.000  H 
  H143     1.0000 0.00000  0.38860  0.28510  Biso   1.000  H 
  O67      1.0000 0.00000  0.36740  0.42810  Biso   1.000  O 
  O68      1.0000 0.00000  0.42810  0.36740  Biso   1.000  O 
  H144     1.0000 0.06399  0.22176  0.34433  Biso   1.000  H 
  C159     1.0000 0.00768  0.18408  0.37950  Biso   1.000  C 
  C160     1.0000 0.04532  0.14888  0.40265  Biso   1.000  C 
  C161     1.0000 0.05784  0.10380  0.37044  Biso   1.000  C 
  H145     1.0000 0.03923  0.06702  0.38441  Biso   1.000  H 
  C162     1.0000 0.11479  0.09158  0.37400  Biso   1.000  C 
  H146     1.0000 0.04719  0.11011  0.33114  Biso   1.000  H 
  H147     1.0000 0.97280  0.16403  0.36920  Biso   1.000  H 
  H148     1.0000 0.99870  0.21100  0.40837  Biso   1.000  H 
  H149     1.0000 0.03099  0.13316  0.43828  Biso   1.000  H 
  H150     1.0000 0.07854  0.17134  0.41153  Biso   1.000  H 
  H151     1.0000 0.12039  0.05362  0.35915  Biso   1.000  H 
  H152     1.0000 0.12638  0.09185  0.41407  Biso   1.000  H 
  H153     1.0000 0.13713  0.11973  0.35178  Biso   1.000  H 
  O69      1.0000 0.00000  0.07190  0.86740  Biso   1.000  O 
  C163     1.0000 0.00000  0.11720  0.88280  Biso   1.000  C 
  O70      1.0000 0.00000  0.13260  0.92810  Biso   1.000  O 
  C164     1.0000 0.00000  0.15650  0.84350  Biso   1.000  C 
  C165     1.0000 0.00000  0.14470  0.79420  Biso   1.000  C 
  C166     1.0000 0.00000  0.20580  0.85530  Biso   1.000  C 
  C167     1.0000 0.00000  0.17950  0.75800  Biso   1.000  C 
  H154     1.0000 0.00000  0.11140  0.78510  Biso   1.000  H 
  C168     1.0000 0.00000  0.24200  0.82050  Biso   1.000  C 
  H155     1.0000 0.00000  0.21490  0.88860  Biso   1.000  H 
  C169     1.0000 0.00000  0.23070  0.76930  Biso   1.000  C 
  C170     1.0000 0.00000  0.26930  0.73070  Biso   1.000  C 
  H156     1.0000 0.00000  0.16950  0.72490  Biso   1.000  H 
  C171     1.0000 0.00000  0.25800  0.67950  Biso   1.000  C 
  H157     1.0000 0.00000  0.27510  0.83050  Biso   1.000  H 
  C172     1.0000 0.00000  0.32050  0.74200  Biso   1.000  C 
  C173     1.0000 0.00000  0.29420  0.64470  Biso   1.000  C 
  N10      1.0000 0.97201  0.21003  0.66359  Biso   1.000  N 
  C174     1.0000 0.00000  0.35530  0.70580  Biso   1.000  C 
  H158     1.0000 0.00000  0.33050  0.77510  Biso   1.000  H 
  C175     1.0000 0.00000  0.34350  0.65650  Biso   1.000  C 
  C176     1.0000 0.00000  0.38280  0.61720  Biso   1.000  C 
  H159     1.0000 0.00000  0.28510  0.61140  Biso   1.000  H 
  H160     1.0000 0.00000  0.38860  0.71490  Biso   1.000  H 
  O71      1.0000 0.00000  0.36740  0.57190  Biso   1.000  O 
  O72      1.0000 0.00000  0.42810  0.63260  Biso   1.000  O 
  H161     1.0000 0.93602  0.22176  0.65567  Biso   1.000  H 
  C177     1.0000 0.99232  0.18408  0.62050  Biso   1.000  C 
  C178     1.0000 0.95468  0.14888  0.59735  Biso   1.000  C 
  C179     1.0000 0.94216  0.10380  0.62956  Biso   1.000  C 
  H162     1.0000 0.96077  0.06702  0.61559  Biso   1.000  H 
  C180     1.0000 0.88521  0.09158  0.62600  Biso   1.000  C 
  H163     1.0000 0.95281  0.11011  0.66886  Biso   1.000  H 
  H164     1.0000 0.02720  0.16403  0.63080  Biso   1.000  H 
  H165     1.0000 0.00130  0.21100  0.59163  Biso   1.000  H 
  H166     1.0000 0.96901  0.13316  0.56172  Biso   1.000  H 
  H167     1.0000 0.92146  0.17134  0.58847  Biso   1.000  H 
  H168     1.0000 0.87961  0.05362  0.64085  Biso   1.000  H 
  H169     1.0000 0.87362  0.09185  0.58593  Biso   1.000  H 
  H170     1.0000 0.86287  0.11973  0.64822  Biso   1.000  H 
  O73      1.0000 0.00000  0.92810  0.86740  Biso   1.000  O 
  C181     1.0000 0.00000  0.88280  0.88280  Biso   1.000  C 
  O74      1.0000 0.00000  0.86740  0.92810  Biso   1.000  O 
  C182     1.0000 0.00000  0.84350  0.84350  Biso   1.000  C 
  C183     1.0000 0.00000  0.85530  0.79420  Biso   1.000  C 
  C184     1.0000 0.00000  0.79420  0.85530  Biso   1.000  C 
  C185     1.0000 0.00000  0.82050  0.75800  Biso   1.000  C 
  H171     1.0000 0.00000  0.88860  0.78510  Biso   1.000  H 
  C186     1.0000 0.00000  0.75800  0.82050  Biso   1.000  C 
  H172     1.0000 0.00000  0.78510  0.88860  Biso   1.000  H 
  C187     1.0000 0.00000  0.76930  0.76930  Biso   1.000  C 
  C188     1.0000 0.00000  0.73070  0.73070  Biso   1.000  C 
  H173     1.0000 0.00000  0.83050  0.72490  Biso   1.000  H 
  C189     1.0000 0.00000  0.74200  0.67950  Biso   1.000  C 
  H174     1.0000 0.00000  0.72490  0.83050  Biso   1.000  H 
  C190     1.0000 0.00000  0.67950  0.74200  Biso   1.000  C 
  C191     1.0000 0.00000  0.70580  0.64470  Biso   1.000  C 
  N11      1.0000 0.02799  0.78997  0.66359  Biso   1.000  N 
  C192     1.0000 0.00000  0.64470  0.70580  Biso   1.000  C 
  H175     1.0000 0.00000  0.66950  0.77510  Biso   1.000  H 
  C193     1.0000 0.00000  0.65650  0.65650  Biso   1.000  C 
  C194     1.0000 0.00000  0.61720  0.61720  Biso   1.000  C 
  H176     1.0000 0.00000  0.71490  0.61140  Biso   1.000  H 
  H177     1.0000 0.00000  0.61140  0.71490  Biso   1.000  H 
  O75      1.0000 0.00000  0.63260  0.57190  Biso   1.000  O 
  O76      1.0000 0.00000  0.57190  0.63260  Biso   1.000  O 
  H178     1.0000 0.06399  0.77824  0.65567  Biso   1.000  H 
  C195     1.0000 0.00768  0.81592  0.62050  Biso   1.000  C 
  C196     1.0000 0.04532  0.85112  0.59735  Biso   1.000  C 
  C197     1.0000 0.05784  0.89620  0.62956  Biso   1.000  C 
  H179     1.0000 0.03923  0.93298  0.61559  Biso   1.000  H 
  C198     1.0000 0.11479  0.90842  0.62600  Biso   1.000  C 
  H180     1.0000 0.04719  0.88989  0.66886  Biso   1.000  H 
  H181     1.0000 0.97280  0.83597  0.63080  Biso   1.000  H 
  H182     1.0000 0.99870  0.78900  0.59163  Biso   1.000  H 
  H183     1.0000 0.03099  0.86684  0.56172  Biso   1.000  H 
  H184     1.0000 0.07854  0.82865  0.58847  Biso   1.000  H 
  H185     1.0000 0.12039  0.94638  0.64085  Biso   1.000  H 
  H186     1.0000 0.12638  0.90815  0.58593  Biso   1.000  H 
  H187     1.0000 0.13713  0.88027  0.64822  Biso   1.000  H 
  O77      1.0000 0.00000  0.92810  0.13260  Biso   1.000  O 
  C199     1.0000 0.00000  0.88280  0.11720  Biso   1.000  C 
  O78      1.0000 0.00000  0.86740  0.07190  Biso   1.000  O 
  C200     1.0000 0.00000  0.84350  0.15650  Biso   1.000  C 
  C201     1.0000 0.00000  0.85530  0.20580  Biso   1.000  C 
  C202     1.0000 0.00000  0.79420  0.14470  Biso   1.000  C 
  C203     1.0000 0.00000  0.82050  0.24200  Biso   1.000  C 
  H188     1.0000 0.00000  0.88860  0.21490  Biso   1.000  H 
  C204     1.0000 0.00000  0.75800  0.17950  Biso   1.000  C 
  H189     1.0000 0.00000  0.78510  0.11140  Biso   1.000  H 
  C205     1.0000 0.00000  0.76930  0.23070  Biso   1.000  C 
  C206     1.0000 0.00000  0.73070  0.26930  Biso   1.000  C 
  H190     1.0000 0.00000  0.83050  0.27510  Biso   1.000  H 
  C207     1.0000 0.00000  0.74200  0.32050  Biso   1.000  C 
  H191     1.0000 0.00000  0.72490  0.16950  Biso   1.000  H 
  C208     1.0000 0.00000  0.67950  0.25800  Biso   1.000  C 
  C209     1.0000 0.00000  0.70580  0.35530  Biso   1.000  C 
  N12      1.0000 0.97201  0.78997  0.33641  Biso   1.000  N 
  C210     1.0000 0.00000  0.64470  0.29420  Biso   1.000  C 
  H192     1.0000 0.00000  0.66950  0.22490  Biso   1.000  H 
  C211     1.0000 0.00000  0.65650  0.34350  Biso   1.000  C 
  C212     1.0000 0.00000  0.61720  0.38280  Biso   1.000  C 
  H193     1.0000 0.00000  0.71490  0.38860  Biso   1.000  H 
  H194     1.0000 0.00000  0.61140  0.28510  Biso   1.000  H 
  O79      1.0000 0.00000  0.63260  0.42810  Biso   1.000  O 
  O80      1.0000 0.00000  0.57190  0.36740  Biso   1.000  O 
  H195     1.0000 0.93602  0.77824  0.34433  Biso   1.000  H 
  C213     1.0000 0.99232  0.81592  0.37950  Biso   1.000  C 
  C214     1.0000 0.95468  0.85112  0.40265  Biso   1.000  C 
  C215     1.0000 0.94216  0.89620  0.37044  Biso   1.000  C 
  H196     1.0000 0.96077  0.93298  0.38441  Biso   1.000  H 
  C216     1.0000 0.88521  0.90842  0.37400  Biso   1.000  C 
  H197     1.0000 0.95281  0.88989  0.33114  Biso   1.000  H 
  H198     1.0000 0.02720  0.83597  0.36920  Biso   1.000  H 
  H199     1.0000 0.00130  0.78900  0.40837  Biso   1.000  H 
  H200     1.0000 0.96901  0.86684  0.43828  Biso   1.000  H 
  H201     1.0000 0.92146  0.82865  0.41153  Biso   1.000  H 
  H202     1.0000 0.87961  0.94638  0.35915  Biso   1.000  H 
  H203     1.0000 0.87362  0.90815  0.41407  Biso   1.000  H 
  H204     1.0000 0.86287  0.88027  0.35178  Biso   1.000  H 
  O81      1.0000 0.13260  0.50000  0.57190  Biso   1.000  O 
  C217     1.0000 0.11720  0.50000  0.61720  Biso   1.000  C 
  O82      1.0000 0.07190  0.50000  0.63260  Biso   1.000  O 
  C218     1.0000 0.15650  0.50000  0.65650  Biso   1.000  C 
  C219     1.0000 0.20580  0.50000  0.64470  Biso   1.000  C 
  C220     1.0000 0.14470  0.50000  0.70580  Biso   1.000  C 
  C221     1.0000 0.24200  0.50000  0.67950  Biso   1.000  C 
  H205     1.0000 0.21490  0.50000  0.61140  Biso   1.000  H 
  C222     1.0000 0.17950  0.50000  0.74200  Biso   1.000  C 
  H206     1.0000 0.11140  0.50000  0.71490  Biso   1.000  H 
  C223     1.0000 0.23070  0.50000  0.73070  Biso   1.000  C 
  C224     1.0000 0.26930  0.50000  0.76930  Biso   1.000  C 
  H207     1.0000 0.27510  0.50000  0.66950  Biso   1.000  H 
  C225     1.0000 0.32050  0.50000  0.75800  Biso   1.000  C 
  H208     1.0000 0.16950  0.50000  0.77510  Biso   1.000  H 
  C226     1.0000 0.25800  0.50000  0.82050  Biso   1.000  C 
  C227     1.0000 0.35530  0.50000  0.79420  Biso   1.000  C 
  N13      1.0000 0.34103  0.48897  0.70606  Biso   1.000  N 
  C228     1.0000 0.29420  0.50000  0.85530  Biso   1.000  C 
  H209     1.0000 0.22490  0.50000  0.83050  Biso   1.000  H 
  C229     1.0000 0.34350  0.50000  0.84350  Biso   1.000  C 
  C230     1.0000 0.38280  0.50000  0.88280  Biso   1.000  C 
  H210     1.0000 0.38860  0.50000  0.78510  Biso   1.000  H 
  H211     1.0000 0.28510  0.50000  0.88860  Biso   1.000  H 
  O83      1.0000 0.42810  0.50000  0.86740  Biso   1.000  O 
  O84      1.0000 0.36740  0.50000  0.92810  Biso   1.000  O 
  H212     1.0000 0.36986  0.51386  0.69777  Biso   1.000  H 
  C231     1.0000 0.35889  0.43729  0.70120  Biso   1.000  C 
  C232     1.0000 0.36367  0.42233  0.64595  Biso   1.000  C 
  C233     1.0000 0.36576  0.36513  0.63984  Biso   1.000  C 
  H213     1.0000 0.39846  0.35107  0.66072  Biso   1.000  H 
  C234     1.0000 0.36988  0.34708  0.58569  Biso   1.000  C 
  H214     1.0000 0.33156  0.34834  0.65593  Biso   1.000  H 
  H215     1.0000 0.33185  0.41172  0.71945  Biso   1.000  H 
  H216     1.0000 0.39584  0.43311  0.71952  Biso   1.000  H 
  H217     1.0000 0.39796  0.43933  0.63039  Biso   1.000  H 
  H218     1.0000 0.33106  0.43673  0.62504  Biso   1.000  H 
  H219     1.0000 0.40774  0.35427  0.57104  Biso   1.000  H 
  H220     1.0000 0.34209  0.36591  0.56160  Biso   1.000  H 
  H221     1.0000 0.36303  0.30636  0.58547  Biso   1.000  H 
  O85      1.0000 0.86740  0.50000  0.57190  Biso   1.000  O 
  C235     1.0000 0.88280  0.50000  0.61720  Biso   1.000  C 
  O86      1.0000 0.92810  0.50000  0.63260  Biso   1.000  O 
  C236     1.0000 0.84350  0.50000  0.65650  Biso   1.000  C 
  C237     1.0000 0.79420  0.50000  0.64470  Biso   1.000  C 
  C238     1.0000 0.85530  0.50000  0.70580  Biso   1.000  C 
  C239     1.0000 0.75800  0.50000  0.67950  Biso   1.000  C 
  H222     1.0000 0.78510  0.50000  0.61140  Biso   1.000  H 
  C240     1.0000 0.82050  0.50000  0.74200  Biso   1.000  C 
  H223     1.0000 0.88860  0.50000  0.71490  Biso   1.000  H 
  C241     1.0000 0.76930  0.50000  0.73070  Biso   1.000  C 
  C242     1.0000 0.73070  0.50000  0.76930  Biso   1.000  C 
  H224     1.0000 0.72490  0.50000  0.66950  Biso   1.000  H 
  C243     1.0000 0.67950  0.50000  0.75800  Biso   1.000  C 
  H225     1.0000 0.83050  0.50000  0.77510  Biso   1.000  H 
  C244     1.0000 0.74200  0.50000  0.82050  Biso   1.000  C 
  C245     1.0000 0.64470  0.50000  0.79420  Biso   1.000  C 
  N14      1.0000 0.65897  0.51103  0.70606  Biso   1.000  N 
  C246     1.0000 0.70580  0.50000  0.85530  Biso   1.000  C 
  H226     1.0000 0.77510  0.50000  0.83050  Biso   1.000  H 
  C247     1.0000 0.65650  0.50000  0.84350  Biso   1.000  C 
  C248     1.0000 0.61720  0.50000  0.88280  Biso   1.000  C 
  H227     1.0000 0.61140  0.50000  0.78510  Biso   1.000  H 
  H228     1.0000 0.71490  0.50000  0.88860  Biso   1.000  H 
  O87      1.0000 0.57190  0.50000  0.86740  Biso   1.000  O 
  O88      1.0000 0.63260  0.50000  0.92810  Biso   1.000  O 
  H229     1.0000 0.63015  0.48614  0.69777  Biso   1.000  H 
  C249     1.0000 0.64111  0.56271  0.70120  Biso   1.000  C 
  C250     1.0000 0.63633  0.57767  0.64595  Biso   1.000  C 
  C251     1.0000 0.63424  0.63487  0.63984  Biso   1.000  C 
  H230     1.0000 0.60154  0.64893  0.66072  Biso   1.000  H 
  C252     1.0000 0.63012  0.65292  0.58569  Biso   1.000  C 
  H231     1.0000 0.66843  0.65166  0.65593  Biso   1.000  H 
  H232     1.0000 0.66815  0.58828  0.71945  Biso   1.000  H 
  H233     1.0000 0.60416  0.56689  0.71952  Biso   1.000  H 
  H234     1.0000 0.60204  0.56067  0.63039  Biso   1.000  H 
  H235     1.0000 0.66894  0.56327  0.62504  Biso   1.000  H 
  H236     1.0000 0.59226  0.64573  0.57104  Biso   1.000  H 
  H237     1.0000 0.65791  0.63409  0.56160  Biso   1.000  H 
  H238     1.0000 0.63697  0.69365  0.58547  Biso   1.000  H 
  O89      1.0000 0.86740  0.50000  0.42810  Biso   1.000  O 
  C253     1.0000 0.88280  0.50000  0.38280  Biso   1.000  C 
  O90      1.0000 0.92810  0.50000  0.36740  Biso   1.000  O 
  C254     1.0000 0.84350  0.50000  0.34350  Biso   1.000  C 
  C255     1.0000 0.79420  0.50000  0.35530  Biso   1.000  C 
  C256     1.0000 0.85530  0.50000  0.29420  Biso   1.000  C 
  C257     1.0000 0.75800  0.50000  0.32050  Biso   1.000  C 
  H239     1.0000 0.78510  0.50000  0.38860  Biso   1.000  H 
  C258     1.0000 0.82050  0.50000  0.25800  Biso   1.000  C 
  H240     1.0000 0.88860  0.50000  0.28510  Biso   1.000  H 
  C259     1.0000 0.76930  0.50000  0.26930  Biso   1.000  C 
  C260     1.0000 0.73070  0.50000  0.23070  Biso   1.000  C 
  H241     1.0000 0.72490  0.50000  0.33050  Biso   1.000  H 
  C261     1.0000 0.67950  0.50000  0.24200  Biso   1.000  C 
  H242     1.0000 0.83050  0.50000  0.22490  Biso   1.000  H 
  C262     1.0000 0.74200  0.50000  0.17950  Biso   1.000  C 
  C263     1.0000 0.64470  0.50000  0.20580  Biso   1.000  C 
  N15      1.0000 0.65897  0.48897  0.29394  Biso   1.000  N 
  C264     1.0000 0.70580  0.50000  0.14470  Biso   1.000  C 
  H243     1.0000 0.77510  0.50000  0.16950  Biso   1.000  H 
  C265     1.0000 0.65650  0.50000  0.15650  Biso   1.000  C 
  C266     1.0000 0.61720  0.50000  0.11720  Biso   1.000  C 
  H244     1.0000 0.61140  0.50000  0.21490  Biso   1.000  H 
  H245     1.0000 0.71490  0.50000  0.11140  Biso   1.000  H 
  O91      1.0000 0.57190  0.50000  0.13260  Biso   1.000  O 
  O92      1.0000 0.63260  0.50000  0.07190  Biso   1.000  O 
  H246     1.0000 0.63015  0.51386  0.30223  Biso   1.000  H 
  C267     1.0000 0.64111  0.43729  0.29880  Biso   1.000  C 
  C268     1.0000 0.63633  0.42233  0.35404  Biso   1.000  C 
  C269     1.0000 0.63424  0.36513  0.36016  Biso   1.000  C 
  H247     1.0000 0.60154  0.35107  0.33928  Biso   1.000  H 
  C270     1.0000 0.63012  0.34708  0.41431  Biso   1.000  C 
  H248     1.0000 0.66843  0.34834  0.34407  Biso   1.000  H 
  H249     1.0000 0.66815  0.41172  0.28055  Biso   1.000  H 
  H250     1.0000 0.60416  0.43311  0.28048  Biso   1.000  H 
  H251     1.0000 0.60204  0.43933  0.36961  Biso   1.000  H 
  H252     1.0000 0.66894  0.43673  0.37496  Biso   1.000  H 
  H253     1.0000 0.59226  0.35427  0.42896  Biso   1.000  H 
  H254     1.0000 0.65791  0.36591  0.43840  Biso   1.000  H 
  H255     1.0000 0.63697  0.30636  0.41453  Biso   1.000  H 
  O93      1.0000 0.13260  0.50000  0.42810  Biso   1.000  O 
  C271     1.0000 0.11720  0.50000  0.38280  Biso   1.000  C 
  O94      1.0000 0.07190  0.50000  0.36740  Biso   1.000  O 
  C272     1.0000 0.15650  0.50000  0.34350  Biso   1.000  C 
  C273     1.0000 0.20580  0.50000  0.35530  Biso   1.000  C 
  C274     1.0000 0.14470  0.50000  0.29420  Biso   1.000  C 
  C275     1.0000 0.24200  0.50000  0.32050  Biso   1.000  C 
  H256     1.0000 0.21490  0.50000  0.38860  Biso   1.000  H 
  C276     1.0000 0.17950  0.50000  0.25800  Biso   1.000  C 
  H257     1.0000 0.11140  0.50000  0.28510  Biso   1.000  H 
  C277     1.0000 0.23070  0.50000  0.26930  Biso   1.000  C 
  C278     1.0000 0.26930  0.50000  0.23070  Biso   1.000  C 
  H258     1.0000 0.27510  0.50000  0.33050  Biso   1.000  H 
  C279     1.0000 0.32050  0.50000  0.24200  Biso   1.000  C 
  H259     1.0000 0.16950  0.50000  0.22490  Biso   1.000  H 
  C280     1.0000 0.25800  0.50000  0.17950  Biso   1.000  C 
  C281     1.0000 0.35530  0.50000  0.20580  Biso   1.000  C 
  N16      1.0000 0.34103  0.51103  0.29394  Biso   1.000  N 
  C282     1.0000 0.29420  0.50000  0.14470  Biso   1.000  C 
  H260     1.0000 0.22490  0.50000  0.16950  Biso   1.000  H 
  C283     1.0000 0.34350  0.50000  0.15650  Biso   1.000  C 
  C284     1.0000 0.38280  0.50000  0.11720  Biso   1.000  C 
  H261     1.0000 0.38860  0.50000  0.21490  Biso   1.000  H 
  H262     1.0000 0.28510  0.50000  0.11140  Biso   1.000  H 
  O95      1.0000 0.42810  0.50000  0.13260  Biso   1.000  O 
  O96      1.0000 0.36740  0.50000  0.07190  Biso   1.000  O 
  H263     1.0000 0.36986  0.48614  0.30223  Biso   1.000  H 
  C285     1.0000 0.35889  0.56271  0.29880  Biso   1.000  C 
  C286     1.0000 0.36367  0.57767  0.35404  Biso   1.000  C 
  C287     1.0000 0.36576  0.63487  0.36016  Biso   1.000  C 
  H264     1.0000 0.39846  0.64893  0.33928  Biso   1.000  H 
  C288     1.0000 0.36988  0.65292  0.41431  Biso   1.000  C 
  H265     1.0000 0.33156  0.65166  0.34407  Biso   1.000  H 
  H266     1.0000 0.33185  0.58828  0.28055  Biso   1.000  H 
  H267     1.0000 0.39584  0.56689  0.28048  Biso   1.000  H 
  H268     1.0000 0.39796  0.56067  0.36961  Biso   1.000  H 
  H269     1.0000 0.33106  0.56327  0.37496  Biso   1.000  H 
  H270     1.0000 0.40774  0.64573  0.42896  Biso   1.000  H 
  H271     1.0000 0.34209  0.63409  0.43840  Biso   1.000  H 
  H272     1.0000 0.36303  0.69365  0.41453  Biso   1.000  H 
  O97      1.0000 0.07190  0.63260  0.50000  Biso   1.000  O 
  C289     1.0000 0.11720  0.61720  0.50000  Biso   1.000  C 
  O98      1.0000 0.13260  0.57190  0.50000  Biso   1.000  O 
  C290     1.0000 0.15650  0.65650  0.50000  Biso   1.000  C 
  C291     1.0000 0.14470  0.70580  0.50000  Biso   1.000  C 
  C292     1.0000 0.20580  0.64470  0.50000  Biso   1.000  C 
  C293     1.0000 0.17950  0.74200  0.50000  Biso   1.000  C 
  H273     1.0000 0.11140  0.71490  0.50000  Biso   1.000  H 
  C294     1.0000 0.24200  0.67950  0.50000  Biso   1.000  C 
  H274     1.0000 0.21490  0.61140  0.50000  Biso   1.000  H 
  C295     1.0000 0.23070  0.73070  0.50000  Biso   1.000  C 
  C296     1.0000 0.26930  0.76930  0.50000  Biso   1.000  C 
  H275     1.0000 0.16950  0.77510  0.50000  Biso   1.000  H 
  C297     1.0000 0.25800  0.82050  0.50000  Biso   1.000  C 
  H276     1.0000 0.27510  0.66950  0.50000  Biso   1.000  H 
  C298     1.0000 0.32050  0.75800  0.50000  Biso   1.000  C 
  C299     1.0000 0.29420  0.85530  0.50000  Biso   1.000  C 
  N17      1.0000 0.20686  0.84025  0.48643  Biso   1.000  N 
  C300     1.0000 0.35530  0.79420  0.50000  Biso   1.000  C 
  H277     1.0000 0.33050  0.72490  0.50000  Biso   1.000  H 
  C301     1.0000 0.34350  0.84350  0.50000  Biso   1.000  C 
  C302     1.0000 0.38280  0.88280  0.50000  Biso   1.000  C 
  H278     1.0000 0.28510  0.88860  0.50000  Biso   1.000  H 
  H279     1.0000 0.38860  0.78510  0.50000  Biso   1.000  H 
  O99      1.0000 0.36740  0.92810  0.50000  Biso   1.000  O 
  O100     1.0000 0.42810  0.86740  0.50000  Biso   1.000  O 
  H280     1.0000 0.19266  0.86336  0.51427  Biso   1.000  H 
  C303     1.0000 0.20796  0.86397  0.43727  Biso   1.000  C 
  C304     1.0000 0.15495  0.86051  0.41957  Biso   1.000  C 
  C305     1.0000 0.14943  0.85836  0.36109  Biso   1.000  C 
  H281     1.0000 0.18243  0.84223  0.34427  Biso   1.000  H 
  C306     1.0000 0.14484  0.91119  0.33960  Biso   1.000  C 
  H282     1.0000 0.11532  0.83650  0.35216  Biso   1.000  H 
  H283     1.0000 0.23752  0.84812  0.41370  Biso   1.000  H 
  H284     1.0000 0.21621  0.90471  0.43955  Biso   1.000  H 
  H285     1.0000 0.13720  0.89568  0.43068  Biso   1.000  H 
  H286     1.0000 0.13101  0.82988  0.43595  Biso   1.000  H 
  H287     1.0000 0.13124  0.91125  0.30081  Biso   1.000  H 
  H288     1.0000 0.18226  0.92899  0.34083  Biso   1.000  H 
  H289     1.0000 0.11976  0.93511  0.36163  Biso   1.000  H 
  O101     1.0000 0.07190  0.36740  0.50000  Biso   1.000  O 
  C307     1.0000 0.11720  0.38280  0.50000  Biso   1.000  C 
  O102     1.0000 0.13260  0.42810  0.50000  Biso   1.000  O 
  C308     1.0000 0.15650  0.34350  0.50000  Biso   1.000  C 
  C309     1.0000 0.14470  0.29420  0.50000  Biso   1.000  C 
  C310     1.0000 0.20580  0.35530  0.50000  Biso   1.000  C 
  C311     1.0000 0.17950  0.25800  0.50000  Biso   1.000  C 
  H290     1.0000 0.11140  0.28510  0.50000  Biso   1.000  H 
  C312     1.0000 0.24200  0.32050  0.50000  Biso   1.000  C 
  H291     1.0000 0.21490  0.38860  0.50000  Biso   1.000  H 
  C313     1.0000 0.23070  0.26930  0.50000  Biso   1.000  C 
  C314     1.0000 0.26930  0.23070  0.50000  Biso   1.000  C 
  H292     1.0000 0.16950  0.22490  0.50000  Biso   1.000  H 
  C315     1.0000 0.25800  0.17950  0.50000  Biso   1.000  C 
  H293     1.0000 0.27510  0.33050  0.50000  Biso   1.000  H 
  C316     1.0000 0.32050  0.24200  0.50000  Biso   1.000  C 
  C317     1.0000 0.29420  0.14470  0.50000  Biso   1.000  C 
  N18      1.0000 0.20686  0.15975  0.51357  Biso   1.000  N 
  C318     1.0000 0.35530  0.20580  0.50000  Biso   1.000  C 
  H294     1.0000 0.33050  0.27510  0.50000  Biso   1.000  H 
  C319     1.0000 0.34350  0.15650  0.50000  Biso   1.000  C 
  C320     1.0000 0.38280  0.11720  0.50000  Biso   1.000  C 
  H295     1.0000 0.28510  0.11140  0.50000  Biso   1.000  H 
  H296     1.0000 0.38860  0.21490  0.50000  Biso   1.000  H 
  O103     1.0000 0.36740  0.07190  0.50000  Biso   1.000  O 
  O104     1.0000 0.42810  0.13260  0.50000  Biso   1.000  O 
  H297     1.0000 0.19266  0.13664  0.48573  Biso   1.000  H 
  C321     1.0000 0.20796  0.13603  0.56273  Biso   1.000  C 
  C322     1.0000 0.15495  0.13949  0.58043  Biso   1.000  C 
  C323     1.0000 0.14943  0.14164  0.63891  Biso   1.000  C 
  H298     1.0000 0.18243  0.15777  0.65573  Biso   1.000  H 
  C324     1.0000 0.14484  0.08880  0.66040  Biso   1.000  C 
  H299     1.0000 0.11532  0.16350  0.64784  Biso   1.000  H 
  H300     1.0000 0.23752  0.15188  0.58630  Biso   1.000  H 
  H301     1.0000 0.21621  0.09529  0.56045  Biso   1.000  H 
  H302     1.0000 0.13720  0.10432  0.56932  Biso   1.000  H 
  H303     1.0000 0.13101  0.17012  0.56405  Biso   1.000  H 
  H304     1.0000 0.13124  0.08875  0.69919  Biso   1.000  H 
  H305     1.0000 0.18226  0.07101  0.65917  Biso   1.000  H 
  H306     1.0000 0.11976  0.06489  0.63837  Biso   1.000  H 
  O105     1.0000 0.92810  0.36740  0.50000  Biso   1.000  O 
  C325     1.0000 0.88280  0.38280  0.50000  Biso   1.000  C 
  O106     1.0000 0.86740  0.42810  0.50000  Biso   1.000  O 
  C326     1.0000 0.84350  0.34350  0.50000  Biso   1.000  C 
  C327     1.0000 0.85530  0.29420  0.50000  Biso   1.000  C 
  C328     1.0000 0.79420  0.35530  0.50000  Biso   1.000  C 
  C329     1.0000 0.82050  0.25800  0.50000  Biso   1.000  C 
  H307     1.0000 0.88860  0.28510  0.50000  Biso   1.000  H 
  C330     1.0000 0.75800  0.32050  0.50000  Biso   1.000  C 
  H308     1.0000 0.78510  0.38860  0.50000  Biso   1.000  H 
  C331     1.0000 0.76930  0.26930  0.50000  Biso   1.000  C 
  C332     1.0000 0.73070  0.23070  0.50000  Biso   1.000  C 
  H309     1.0000 0.83050  0.22490  0.50000  Biso   1.000  H 
  C333     1.0000 0.74200  0.17950  0.50000  Biso   1.000  C 
  H310     1.0000 0.72490  0.33050  0.50000  Biso   1.000  H 
  C334     1.0000 0.67950  0.24200  0.50000  Biso   1.000  C 
  C335     1.0000 0.70580  0.14470  0.50000  Biso   1.000  C 
  N19      1.0000 0.79314  0.15975  0.48643  Biso   1.000  N 
  C336     1.0000 0.64470  0.20580  0.50000  Biso   1.000  C 
  H311     1.0000 0.66950  0.27510  0.50000  Biso   1.000  H 
  C337     1.0000 0.65650  0.15650  0.50000  Biso   1.000  C 
  C338     1.0000 0.61720  0.11720  0.50000  Biso   1.000  C 
  H312     1.0000 0.71490  0.11140  0.50000  Biso   1.000  H 
  H313     1.0000 0.61140  0.21490  0.50000  Biso   1.000  H 
  O107     1.0000 0.63260  0.07190  0.50000  Biso   1.000  O 
  O108     1.0000 0.57190  0.13260  0.50000  Biso   1.000  O 
  H314     1.0000 0.80734  0.13664  0.51427  Biso   1.000  H 
  C339     1.0000 0.79204  0.13603  0.43727  Biso   1.000  C 
  C340     1.0000 0.84505  0.13949  0.41957  Biso   1.000  C 
  C341     1.0000 0.85057  0.14164  0.36109  Biso   1.000  C 
  H315     1.0000 0.81757  0.15777  0.34427  Biso   1.000  H 
  C342     1.0000 0.85516  0.08880  0.33960  Biso   1.000  C 
  H316     1.0000 0.88468  0.16350  0.35216  Biso   1.000  H 
  H317     1.0000 0.76248  0.15188  0.41370  Biso   1.000  H 
  H318     1.0000 0.78379  0.09529  0.43955  Biso   1.000  H 
  H319     1.0000 0.86280  0.10432  0.43068  Biso   1.000  H 
  H320     1.0000 0.86898  0.17012  0.43595  Biso   1.000  H 
  H321     1.0000 0.86876  0.08875  0.30081  Biso   1.000  H 
  H322     1.0000 0.81773  0.07101  0.34083  Biso   1.000  H 
  H323     1.0000 0.88024  0.06489  0.36163  Biso   1.000  H 
  O109     1.0000 0.92810  0.63260  0.50000  Biso   1.000  O 
  C343     1.0000 0.88280  0.61720  0.50000  Biso   1.000  C 
  O110     1.0000 0.86740  0.57190  0.50000  Biso   1.000  O 
  C344     1.0000 0.84350  0.65650  0.50000  Biso   1.000  C 
  C345     1.0000 0.85530  0.70580  0.50000  Biso   1.000  C 
  C346     1.0000 0.79420  0.64470  0.50000  Biso   1.000  C 
  C347     1.0000 0.82050  0.74200  0.50000  Biso   1.000  C 
  H324     1.0000 0.88860  0.71490  0.50000  Biso   1.000  H 
  C348     1.0000 0.75800  0.67950  0.50000  Biso   1.000  C 
  H325     1.0000 0.78510  0.61140  0.50000  Biso   1.000  H 
  C349     1.0000 0.76930  0.73070  0.50000  Biso   1.000  C 
  C350     1.0000 0.73070  0.76930  0.50000  Biso   1.000  C 
  H326     1.0000 0.83050  0.77510  0.50000  Biso   1.000  H 
  C351     1.0000 0.74200  0.82050  0.50000  Biso   1.000  C 
  H327     1.0000 0.72490  0.66950  0.50000  Biso   1.000  H 
  C352     1.0000 0.67950  0.75800  0.50000  Biso   1.000  C 
  C353     1.0000 0.70580  0.85530  0.50000  Biso   1.000  C 
  N20      1.0000 0.79314  0.84025  0.51357  Biso   1.000  N 
  C354     1.0000 0.64470  0.79420  0.50000  Biso   1.000  C 
  H328     1.0000 0.66950  0.72490  0.50000  Biso   1.000  H 
  C355     1.0000 0.65650  0.84350  0.50000  Biso   1.000  C 
  C356     1.0000 0.61720  0.88280  0.50000  Biso   1.000  C 
  H329     1.0000 0.71490  0.88860  0.50000  Biso   1.000  H 
  H330     1.0000 0.61140  0.78510  0.50000  Biso   1.000  H 
  O111     1.0000 0.63260  0.92810  0.50000  Biso   1.000  O 
  O112     1.0000 0.57190  0.86740  0.50000  Biso   1.000  O 
  H331     1.0000 0.80734  0.86336  0.48573  Biso   1.000  H 
  C357     1.0000 0.79204  0.86397  0.56273  Biso   1.000  C 
  C358     1.0000 0.84505  0.86051  0.58043  Biso   1.000  C 
  C359     1.0000 0.85057  0.85836  0.63891  Biso   1.000  C 
  H332     1.0000 0.81757  0.84223  0.65573  Biso   1.000  H 
  C360     1.0000 0.85516  0.91119  0.66040  Biso   1.000  C 
  H333     1.0000 0.88468  0.83650  0.64784  Biso   1.000  H 
  H334     1.0000 0.76248  0.84812  0.58630  Biso   1.000  H 
  H335     1.0000 0.78379  0.90471  0.56045  Biso   1.000  H 
  H336     1.0000 0.86280  0.89568  0.56932  Biso   1.000  H 
  H337     1.0000 0.86898  0.82988  0.56405  Biso   1.000  H 
  H338     1.0000 0.86876  0.91125  0.69919  Biso   1.000  H 
  H339     1.0000 0.81773  0.92899  0.65917  Biso   1.000  H 
  H340     1.0000 0.88024  0.93511  0.63837  Biso   1.000  H 
  O113     1.0000 0.50000  0.07190  0.63260  Biso   1.000  O 
  C361     1.0000 0.50000  0.11720  0.61720  Biso   1.000  C 
  O114     1.0000 0.50000  0.13260  0.57190  Biso   1.000  O 
  C362     1.0000 0.50000  0.15650  0.65650  Biso   1.000  C 
  C363     1.0000 0.50000  0.14470  0.70580  Biso   1.000  C 
  C364     1.0000 0.50000  0.20580  0.64470  Biso   1.000  C 
  C365     1.0000 0.50000  0.17950  0.74200  Biso   1.000  C 
  H341     1.0000 0.50000  0.11140  0.71490  Biso   1.000  H 
  C366     1.0000 0.50000  0.24200  0.67950  Biso   1.000  C 
  H342     1.0000 0.50000  0.21490  0.61140  Biso   1.000  H 
  C367     1.0000 0.50000  0.23070  0.73070  Biso   1.000  C 
  C368     1.0000 0.50000  0.26930  0.76930  Biso   1.000  C 
  H343     1.0000 0.50000  0.16950  0.77510  Biso   1.000  H 
  C369     1.0000 0.50000  0.25800  0.82050  Biso   1.000  C 
  H344     1.0000 0.50000  0.27510  0.66950  Biso   1.000  H 
  C370     1.0000 0.50000  0.32050  0.75800  Biso   1.000  C 
  C371     1.0000 0.50000  0.29420  0.85530  Biso   1.000  C 
  N21      1.0000 0.48280  0.20538  0.84027  Biso   1.000  N 
  C372     1.0000 0.50000  0.35530  0.79420  Biso   1.000  C 
  H345     1.0000 0.50000  0.33050  0.72490  Biso   1.000  H 
  C373     1.0000 0.50000  0.34350  0.84350  Biso   1.000  C 
  C374     1.0000 0.50000  0.38280  0.88280  Biso   1.000  C 
  H346     1.0000 0.50000  0.28510  0.88860  Biso   1.000  H 
  H347     1.0000 0.50000  0.38860  0.78510  Biso   1.000  H 
  O115     1.0000 0.50000  0.36740  0.92810  Biso   1.000  O 
  O116     1.0000 0.50000  0.42810  0.86740  Biso   1.000  O 
  H348     1.0000 0.50652  0.19346  0.86861  Biso   1.000  H 
  C375     1.0000 0.43512  0.19946  0.86356  Biso   1.000  C 
  C376     1.0000 0.39724  0.17768  0.82636  Biso   1.000  C 
  C377     1.0000 0.34479  0.18812  0.84982  Biso   1.000  C 
  H349     1.0000 0.34050  0.16910  0.88574  Biso   1.000  H 
  C378     1.0000 0.30441  0.16813  0.81392  Biso   1.000  C 
  H350     1.0000 0.33928  0.22874  0.85554  Biso   1.000  H 
  H351     1.0000 0.42133  0.23714  0.87766  Biso   1.000  H 
  H352     1.0000 0.43733  0.17139  0.89341  Biso   1.000  H 
  H353     1.0000 0.40341  0.13638  0.81757  Biso   1.000  H 
  H354     1.0000 0.40208  0.19944  0.79174  Biso   1.000  H 
  H355     1.0000 0.27054  0.15643  0.83477  Biso   1.000  H 
  H356     1.0000 0.31837  0.13435  0.79254  Biso   1.000  H 
  H357     1.0000 0.29564  0.19937  0.78860  Biso   1.000  H 
  O117     1.0000 0.50000  0.07190  0.36740  Biso   1.000  O 
  C379     1.0000 0.50000  0.11720  0.38280  Biso   1.000  C 
  O118     1.0000 0.50000  0.13260  0.42810  Biso   1.000  O 
  C380     1.0000 0.50000  0.15650  0.34350  Biso   1.000  C 
  C381     1.0000 0.50000  0.14470  0.29420  Biso   1.000  C 
  C382     1.0000 0.50000  0.20580  0.35530  Biso   1.000  C 
  C383     1.0000 0.50000  0.17950  0.25800  Biso   1.000  C 
  H358     1.0000 0.50000  0.11140  0.28510  Biso   1.000  H 
  C384     1.0000 0.50000  0.24200  0.32050  Biso   1.000  C 
  H359     1.0000 0.50000  0.21490  0.38860  Biso   1.000  H 
  C385     1.0000 0.50000  0.23070  0.26930  Biso   1.000  C 
  C386     1.0000 0.50000  0.26930  0.23070  Biso   1.000  C 
  H360     1.0000 0.50000  0.16950  0.22490  Biso   1.000  H 
  C387     1.0000 0.50000  0.25800  0.17950  Biso   1.000  C 
  H361     1.0000 0.50000  0.27510  0.33050  Biso   1.000  H 
  C388     1.0000 0.50000  0.32050  0.24200  Biso   1.000  C 
  C389     1.0000 0.50000  0.29420  0.14470  Biso   1.000  C 
  N22      1.0000 0.51720  0.20538  0.15973  Biso   1.000  N 
  C390     1.0000 0.50000  0.35530  0.20580  Biso   1.000  C 
  H362     1.0000 0.50000  0.33050  0.27510  Biso   1.000  H 
  C391     1.0000 0.50000  0.34350  0.15650  Biso   1.000  C 
  C392     1.0000 0.50000  0.38280  0.11720  Biso   1.000  C 
  H363     1.0000 0.50000  0.28510  0.11140  Biso   1.000  H 
  H364     1.0000 0.50000  0.38860  0.21490  Biso   1.000  H 
  O119     1.0000 0.50000  0.36740  0.07190  Biso   1.000  O 
  O120     1.0000 0.50000  0.42810  0.13260  Biso   1.000  O 
  H365     1.0000 0.49348  0.19346  0.13139  Biso   1.000  H 
  C393     1.0000 0.56488  0.19946  0.13644  Biso   1.000  C 
  C394     1.0000 0.60276  0.17768  0.17364  Biso   1.000  C 
  C395     1.0000 0.65522  0.18812  0.15018  Biso   1.000  C 
  H366     1.0000 0.65950  0.16910  0.11426  Biso   1.000  H 
  C396     1.0000 0.69559  0.16813  0.18608  Biso   1.000  C 
  H367     1.0000 0.66072  0.22874  0.14446  Biso   1.000  H 
  H368     1.0000 0.57867  0.23714  0.12234  Biso   1.000  H 
  H369     1.0000 0.56267  0.17139  0.10659  Biso   1.000  H 
  H370     1.0000 0.59659  0.13638  0.18243  Biso   1.000  H 
  H371     1.0000 0.59792  0.19944  0.20826  Biso   1.000  H 
  H372     1.0000 0.72946  0.15643  0.16523  Biso   1.000  H 
  H373     1.0000 0.68163  0.13435  0.20746  Biso   1.000  H 
  H374     1.0000 0.70436  0.19937  0.21140  Biso   1.000  H 
  O121     1.0000 0.50000  0.92810  0.36740  Biso   1.000  O 
  C397     1.0000 0.50000  0.88280  0.38280  Biso   1.000  C 
  O122     1.0000 0.50000  0.86740  0.42810  Biso   1.000  O 
  C398     1.0000 0.50000  0.84350  0.34350  Biso   1.000  C 
  C399     1.0000 0.50000  0.85530  0.29420  Biso   1.000  C 
  C400     1.0000 0.50000  0.79420  0.35530  Biso   1.000  C 
  C401     1.0000 0.50000  0.82050  0.25800  Biso   1.000  C 
  H375     1.0000 0.50000  0.88860  0.28510  Biso   1.000  H 
  C402     1.0000 0.50000  0.75800  0.32050  Biso   1.000  C 
  H376     1.0000 0.50000  0.78510  0.38860  Biso   1.000  H 
  C403     1.0000 0.50000  0.76930  0.26930  Biso   1.000  C 
  C404     1.0000 0.50000  0.73070  0.23070  Biso   1.000  C 
  H377     1.0000 0.50000  0.83050  0.22490  Biso   1.000  H 
  C405     1.0000 0.50000  0.74200  0.17950  Biso   1.000  C 
  H378     1.0000 0.50000  0.72490  0.33050  Biso   1.000  H 
  C406     1.0000 0.50000  0.67950  0.24200  Biso   1.000  C 
  C407     1.0000 0.50000  0.70580  0.14470  Biso   1.000  C 
  N23      1.0000 0.48280  0.79462  0.15973  Biso   1.000  N 
  C408     1.0000 0.50000  0.64470  0.20580  Biso   1.000  C 
  H379     1.0000 0.50000  0.66950  0.27510  Biso   1.000  H 
  C409     1.0000 0.50000  0.65650  0.15650  Biso   1.000  C 
  C410     1.0000 0.50000  0.61720  0.11720  Biso   1.000  C 
  H380     1.0000 0.50000  0.71490  0.11140  Biso   1.000  H 
  H381     1.0000 0.50000  0.61140  0.21490  Biso   1.000  H 
  O123     1.0000 0.50000  0.63260  0.07190  Biso   1.000  O 
  O124     1.0000 0.50000  0.57190  0.13260  Biso   1.000  O 
  H382     1.0000 0.50652  0.80654  0.13139  Biso   1.000  H 
  C411     1.0000 0.43512  0.80054  0.13644  Biso   1.000  C 
  C412     1.0000 0.39724  0.82232  0.17364  Biso   1.000  C 
  C413     1.0000 0.34479  0.81188  0.15018  Biso   1.000  C 
  H383     1.0000 0.34050  0.83090  0.11426  Biso   1.000  H 
  C414     1.0000 0.30441  0.83187  0.18608  Biso   1.000  C 
  H384     1.0000 0.33928  0.77126  0.14446  Biso   1.000  H 
  H385     1.0000 0.42133  0.76286  0.12234  Biso   1.000  H 
  H386     1.0000 0.43733  0.82861  0.10659  Biso   1.000  H 
  H387     1.0000 0.40341  0.86362  0.18243  Biso   1.000  H 
  H388     1.0000 0.40208  0.80056  0.20826  Biso   1.000  H 
  H389     1.0000 0.27054  0.84357  0.16523  Biso   1.000  H 
  H390     1.0000 0.31837  0.86565  0.20746  Biso   1.000  H 
  H391     1.0000 0.29564  0.80064  0.21140  Biso   1.000  H 
  O125     1.0000 0.50000  0.92810  0.63260  Biso   1.000  O 
  C415     1.0000 0.50000  0.88280  0.61720  Biso   1.000  C 
  O126     1.0000 0.50000  0.86740  0.57190  Biso   1.000  O 
  C416     1.0000 0.50000  0.84350  0.65650  Biso   1.000  C 
  C417     1.0000 0.50000  0.85530  0.70580  Biso   1.000  C 
  C418     1.0000 0.50000  0.79420  0.64470  Biso   1.000  C 
  C419     1.0000 0.50000  0.82050  0.74200  Biso   1.000  C 
  H392     1.0000 0.50000  0.88860  0.71490  Biso   1.000  H 
  C420     1.0000 0.50000  0.75800  0.67950  Biso   1.000  C 
  H393     1.0000 0.50000  0.78510  0.61140  Biso   1.000  H 
  C421     1.0000 0.50000  0.76930  0.73070  Biso   1.000  C 
  C422     1.0000 0.50000  0.73070  0.76930  Biso   1.000  C 
  H394     1.0000 0.50000  0.83050  0.77510  Biso   1.000  H 
  C423     1.0000 0.50000  0.74200  0.82050  Biso   1.000  C 
  H395     1.0000 0.50000  0.72490  0.66950  Biso   1.000  H 
  C424     1.0000 0.50000  0.67950  0.75800  Biso   1.000  C 
  C425     1.0000 0.50000  0.70580  0.85530  Biso   1.000  C 
  N24      1.0000 0.51720  0.79462  0.84027  Biso   1.000  N 
  C426     1.0000 0.50000  0.64470  0.79420  Biso   1.000  C 
  H396     1.0000 0.50000  0.66950  0.72490  Biso   1.000  H 
  C427     1.0000 0.50000  0.65650  0.84350  Biso   1.000  C 
  C428     1.0000 0.50000  0.61720  0.88280  Biso   1.000  C 
  H397     1.0000 0.50000  0.71490  0.88860  Biso   1.000  H 
  H398     1.0000 0.50000  0.61140  0.78510  Biso   1.000  H 
  O127     1.0000 0.50000  0.63260  0.92810  Biso   1.000  O 
  O128     1.0000 0.50000  0.57190  0.86740  Biso   1.000  O 
  H399     1.0000 0.49348  0.80654  0.86861  Biso   1.000  H 
  C429     1.0000 0.56488  0.80054  0.86356  Biso   1.000  C 
  C430     1.0000 0.60276  0.82232  0.82636  Biso   1.000  C 
  C431     1.0000 0.65522  0.81188  0.84982  Biso   1.000  C 
  H400     1.0000 0.65950  0.83090  0.88574  Biso   1.000  H 
  C432     1.0000 0.69559  0.83187  0.81392  Biso   1.000  C 
  H401     1.0000 0.66072  0.77126  0.85554  Biso   1.000  H 
  H402     1.0000 0.57867  0.76286  0.87766  Biso   1.000  H 
  H403     1.0000 0.56267  0.82861  0.89341  Biso   1.000  H 
  H404     1.0000 0.59659  0.86362  0.81757  Biso   1.000  H 
  H405     1.0000 0.59792  0.80056  0.79174  Biso   1.000  H 
  H406     1.0000 0.72946  0.84357  0.83477  Biso   1.000  H 
  H407     1.0000 0.68163  0.86565  0.79254  Biso   1.000  H 
  H408     1.0000 0.70436  0.80064  0.78860  Biso   1.000  H 
