data_image0
_cell_length_a       26.896
_cell_length_b       26.896
_cell_length_c       26.896
_cell_angle_alpha    90
_cell_angle_beta     90
_cell_angle_gamma    90

_symmetry_space_group_name_H-M    "P 1"
_symmetry_int_tables_number       1

loop_
  _symmetry_equiv_pos_as_xyz
  'x, y, z'

loop_
  _atom_site_label
  _atom_site_occupancy
  _atom_site_fract_x
  _atom_site_fract_y
  _atom_site_fract_z
  _atom_site_thermal_displace_type
  _atom_site_B_iso_or_equiv
  _atom_site_type_symbol
  Zr1      1.0000 0.09204  0.00000  0.00000  Biso   1.000  Zr
  Zr2      1.0000 0.90796  0.00000  0.00000  Biso   1.000  Zr
  Zr3      1.0000 0.00000  0.09204  0.00000  Biso   1.000  Zr
  Zr4      1.0000 0.00000  0.90796  0.00000  Biso   1.000  Zr
  Zr5      1.0000 0.00000  0.00000  0.09204  Biso   1.000  Zr
  Zr6      1.0000 0.00000  0.00000  0.90796  Biso   1.000  Zr
  Zr7      1.0000 0.09204  0.50000  0.50000  Biso   1.000  Zr
  Zr8      1.0000 0.90796  0.50000  0.50000  Biso   1.000  Zr
  Zr9      1.0000 0.00000  0.59204  0.50000  Biso   1.000  Zr
  Zr10     1.0000 0.00000  0.40796  0.50000  Biso   1.000  Zr
  Zr11     1.0000 0.00000  0.50000  0.59204  Biso   1.000  Zr
  Zr12     1.0000 0.00000  0.50000  0.40796  Biso   1.000  Zr
  Zr13     1.0000 0.59204  0.00000  0.50000  Biso   1.000  Zr
  Zr14     1.0000 0.40796  0.00000  0.50000  Biso   1.000  Zr
  Zr15     1.0000 0.50000  0.09204  0.50000  Biso   1.000  Zr
  Zr16     1.0000 0.50000  0.90796  0.50000  Biso   1.000  Zr
  Zr17     1.0000 0.50000  0.00000  0.59204  Biso   1.000  Zr
  Zr18     1.0000 0.50000  0.00000  0.40796  Biso   1.000  Zr
  Zr19     1.0000 0.59204  0.50000  0.00000  Biso   1.000  Zr
  Zr20     1.0000 0.40796  0.50000  0.00000  Biso   1.000  Zr
  Zr21     1.0000 0.50000  0.59204  0.00000  Biso   1.000  Zr
  Zr22     1.0000 0.50000  0.40796  0.00000  Biso   1.000  Zr
  Zr23     1.0000 0.50000  0.50000  0.09204  Biso   1.000  Zr
  Zr24     1.0000 0.50000  0.50000  0.90796  Biso   1.000  Zr
  O1       1.0000 0.04540  0.04540  0.04540  Biso   1.000  O 
  O2       1.0000 0.95460  0.95460  0.04540  Biso   1.000  O 
  O3       1.0000 0.95460  0.04540  0.95460  Biso   1.000  O 
  O4       1.0000 0.04540  0.95460  0.95460  Biso   1.000  O 
  O5       1.0000 0.04540  0.04540  0.95460  Biso   1.000  O 
  O6       1.0000 0.95460  0.95460  0.95460  Biso   1.000  O 
  O7       1.0000 0.04540  0.95460  0.04540  Biso   1.000  O 
  O8       1.0000 0.95460  0.04540  0.04540  Biso   1.000  O 
  O9       1.0000 0.04540  0.54540  0.54540  Biso   1.000  O 
  O10      1.0000 0.95460  0.45460  0.54540  Biso   1.000  O 
  O11      1.0000 0.95460  0.54540  0.45460  Biso   1.000  O 
  O12      1.0000 0.04540  0.45460  0.45460  Biso   1.000  O 
  O13      1.0000 0.04540  0.54540  0.45460  Biso   1.000  O 
  O14      1.0000 0.95460  0.45460  0.45460  Biso   1.000  O 
  O15      1.0000 0.04540  0.45460  0.54540  Biso   1.000  O 
  O16      1.0000 0.95460  0.54540  0.54540  Biso   1.000  O 
  O17      1.0000 0.54540  0.04540  0.54540  Biso   1.000  O 
  O18      1.0000 0.45460  0.95460  0.54540  Biso   1.000  O 
  O19      1.0000 0.45460  0.04540  0.45460  Biso   1.000  O 
  O20      1.0000 0.54540  0.95460  0.45460  Biso   1.000  O 
  O21      1.0000 0.54540  0.04540  0.45460  Biso   1.000  O 
  O22      1.0000 0.45460  0.95460  0.45460  Biso   1.000  O 
  O23      1.0000 0.54540  0.95460  0.54540  Biso   1.000  O 
  O24      1.0000 0.45460  0.04540  0.54540  Biso   1.000  O 
  O25      1.0000 0.54540  0.54540  0.04540  Biso   1.000  O 
  O26      1.0000 0.45460  0.45460  0.04540  Biso   1.000  O 
  O27      1.0000 0.45460  0.54540  0.95460  Biso   1.000  O 
  O28      1.0000 0.54540  0.45460  0.95460  Biso   1.000  O 
  O29      1.0000 0.54540  0.54540  0.95460  Biso   1.000  O 
  O30      1.0000 0.45460  0.45460  0.95460  Biso   1.000  O 
  O31      1.0000 0.54540  0.45460  0.04540  Biso   1.000  O 
  O32      1.0000 0.45460  0.54540  0.04540  Biso   1.000  O 
  O33      1.0000 0.13260  0.00000  0.07190  Biso   1.000  O 
  C1       1.0000 0.11720  0.00000  0.11720  Biso   1.000  C 
  O34      1.0000 0.07190  0.00000  0.13260  Biso   1.000  O 
  C2       1.0000 0.15650  0.00000  0.15650  Biso   1.000  C 
  C3       1.0000 0.20580  0.00000  0.14470  Biso   1.000  C 
  C4       1.0000 0.14470  0.00000  0.20580  Biso   1.000  C 
  C5       1.0000 0.24200  0.00000  0.17950  Biso   1.000  C 
  H1       1.0000 0.21490  0.00000  0.11140  Biso   1.000  H 
  C6       1.0000 0.17950  0.00000  0.24200  Biso   1.000  C 
  H2       1.0000 0.11140  0.00000  0.21490  Biso   1.000  H 
  C7       1.0000 0.23070  0.00000  0.23070  Biso   1.000  C 
  C8       1.0000 0.26930  0.00000  0.26930  Biso   1.000  C 
  H3       1.0000 0.27510  0.00000  0.16950  Biso   1.000  H 
  C9       1.0000 0.32050  0.00000  0.25800  Biso   1.000  C 
  H4       1.0000 0.16950  0.00000  0.27510  Biso   1.000  H 
  C10      1.0000 0.25800  0.00000  0.32050  Biso   1.000  C 
  C11      1.0000 0.35530  0.00000  0.29420  Biso   1.000  C 
  H5       1.0000 0.33050  0.00000  0.22490  Biso   1.000  H 
  C12      1.0000 0.29420  0.00000  0.35530  Biso   1.000  C 
  H6       1.0000 0.22490  0.00000  0.33050  Biso   1.000  H 
  C13      1.0000 0.34350  0.00000  0.34350  Biso   1.000  C 
  C14      1.0000 0.38280  0.00000  0.38280  Biso   1.000  C 
  O35      1.0000 0.40693  0.01040  0.28046  Biso   1.000  O 
  H7       1.0000 0.28510  0.00000  0.38860  Biso   1.000  H 
  O36      1.0000 0.42810  0.00000  0.36740  Biso   1.000  O 
  O37      1.0000 0.36740  0.00000  0.42810  Biso   1.000  O 
  C15      1.0000 0.41138  0.03241  0.23258  Biso   1.000  C 
  C16      1.0000 0.45832  0.05604  0.22196  Biso   1.000  C 
  H8       1.0000 0.38480  0.06516  0.22488  Biso   1.000  H 
  H9       1.0000 0.40885  0.00198  0.20502  Biso   1.000  H 
  H10      1.0000 0.45228  0.09440  0.23543  Biso   1.000  H 
  C17      1.0000 0.46946  0.06264  0.16663  Biso   1.000  C 
  H11      1.0000 0.48984  0.03750  0.24093  Biso   1.000  H 
  H12      1.0000 0.43464  0.08238  0.15251  Biso   1.000  H 
  H13      1.0000 0.47226  0.02572  0.14689  Biso   1.000  H 
  C18      1.0000 0.51461  0.09258  0.15348  Biso   1.000  C 
  H14      1.0000 0.50530  0.13122  0.14433  Biso   1.000  H 
  H15      1.0000 0.53356  0.07529  0.12243  Biso   1.000  H 
  H16      1.0000 0.54212  0.09469  0.18382  Biso   1.000  H 
  O38      1.0000 0.86740  0.00000  0.07190  Biso   1.000  O 
  C19      1.0000 0.88280  0.00000  0.11720  Biso   1.000  C 
  O39      1.0000 0.92810  0.00000  0.13260  Biso   1.000  O 
  C20      1.0000 0.84350  0.00000  0.15650  Biso   1.000  C 
  C21      1.0000 0.79420  0.00000  0.14470  Biso   1.000  C 
  C22      1.0000 0.85530  0.00000  0.20580  Biso   1.000  C 
  C23      1.0000 0.75800  0.00000  0.17950  Biso   1.000  C 
  H17      1.0000 0.78510  0.00000  0.11140  Biso   1.000  H 
  C24      1.0000 0.82050  0.00000  0.24200  Biso   1.000  C 
  H18      1.0000 0.88860  0.00000  0.21490  Biso   1.000  H 
  C25      1.0000 0.76930  0.00000  0.23070  Biso   1.000  C 
  C26      1.0000 0.73070  0.00000  0.26930  Biso   1.000  C 
  H19      1.0000 0.72490  0.00000  0.16950  Biso   1.000  H 
  C27      1.0000 0.67950  0.00000  0.25800  Biso   1.000  C 
  H20      1.0000 0.83050  0.00000  0.27510  Biso   1.000  H 
  C28      1.0000 0.74200  0.00000  0.32050  Biso   1.000  C 
  C29      1.0000 0.64470  0.00000  0.29420  Biso   1.000  C 
  H21      1.0000 0.66950  0.00000  0.22490  Biso   1.000  H 
  C30      1.0000 0.70580  0.00000  0.35530  Biso   1.000  C 
  H22      1.0000 0.77510  0.00000  0.33050  Biso   1.000  H 
  C31      1.0000 0.65650  0.00000  0.34350  Biso   1.000  C 
  C32      1.0000 0.61720  0.00000  0.38280  Biso   1.000  C 
  O40      1.0000 0.59307  0.98960  0.28046  Biso   1.000  O 
  H23      1.0000 0.71490  0.00000  0.38860  Biso   1.000  H 
  O41      1.0000 0.57190  0.00000  0.36740  Biso   1.000  O 
  O42      1.0000 0.63260  0.00000  0.42810  Biso   1.000  O 
  C33      1.0000 0.58862  0.96759  0.23258  Biso   1.000  C 
  C34      1.0000 0.54168  0.94396  0.22196  Biso   1.000  C 
  H24      1.0000 0.61520  0.93483  0.22488  Biso   1.000  H 
  H25      1.0000 0.59115  0.99802  0.20502  Biso   1.000  H 
  H26      1.0000 0.54772  0.90560  0.23543  Biso   1.000  H 
  C35      1.0000 0.53054  0.93736  0.16663  Biso   1.000  C 
  H27      1.0000 0.51016  0.96250  0.24093  Biso   1.000  H 
  H28      1.0000 0.56536  0.91762  0.15251  Biso   1.000  H 
  H29      1.0000 0.52774  0.97428  0.14689  Biso   1.000  H 
  C36      1.0000 0.48539  0.90742  0.15348  Biso   1.000  C 
  H30      1.0000 0.49470  0.86878  0.14433  Biso   1.000  H 
  H31      1.0000 0.46644  0.92471  0.12243  Biso   1.000  H 
  H32      1.0000 0.45788  0.90531  0.18382  Biso   1.000  H 
  O43      1.0000 0.86740  0.00000  0.92810  Biso   1.000  O 
  C37      1.0000 0.88280  0.00000  0.88280  Biso   1.000  C 
  O44      1.0000 0.92810  0.00000  0.86740  Biso   1.000  O 
  C38      1.0000 0.84350  0.00000  0.84350  Biso   1.000  C 
  C39      1.0000 0.79420  0.00000  0.85530  Biso   1.000  C 
  C40      1.0000 0.85530  0.00000  0.79420  Biso   1.000  C 
  C41      1.0000 0.75800  0.00000  0.82050  Biso   1.000  C 
  H33      1.0000 0.78510  0.00000  0.88860  Biso   1.000  H 
  C42      1.0000 0.82050  0.00000  0.75800  Biso   1.000  C 
  H34      1.0000 0.88860  0.00000  0.78510  Biso   1.000  H 
  C43      1.0000 0.76930  0.00000  0.76930  Biso   1.000  C 
  C44      1.0000 0.73070  0.00000  0.73070  Biso   1.000  C 
  H35      1.0000 0.72490  0.00000  0.83050  Biso   1.000  H 
  C45      1.0000 0.67950  0.00000  0.74200  Biso   1.000  C 
  H36      1.0000 0.83050  0.00000  0.72490  Biso   1.000  H 
  C46      1.0000 0.74200  0.00000  0.67950  Biso   1.000  C 
  C47      1.0000 0.64470  0.00000  0.70580  Biso   1.000  C 
  H37      1.0000 0.66950  0.00000  0.77510  Biso   1.000  H 
  C48      1.0000 0.70580  0.00000  0.64470  Biso   1.000  C 
  H38      1.0000 0.77510  0.00000  0.66950  Biso   1.000  H 
  C49      1.0000 0.65650  0.00000  0.65650  Biso   1.000  C 
  C50      1.0000 0.61720  0.00000  0.61720  Biso   1.000  C 
  O45      1.0000 0.59307  0.01040  0.71953  Biso   1.000  O 
  H39      1.0000 0.71490  0.00000  0.61140  Biso   1.000  H 
  O46      1.0000 0.57190  0.00000  0.63260  Biso   1.000  O 
  O47      1.0000 0.63260  0.00000  0.57190  Biso   1.000  O 
  C51      1.0000 0.58862  0.03241  0.76742  Biso   1.000  C 
  C52      1.0000 0.54168  0.05604  0.77803  Biso   1.000  C 
  H40      1.0000 0.61520  0.06516  0.77512  Biso   1.000  H 
  H41      1.0000 0.59115  0.00198  0.79497  Biso   1.000  H 
  H42      1.0000 0.54772  0.09440  0.76457  Biso   1.000  H 
  C53      1.0000 0.53054  0.06264  0.83337  Biso   1.000  C 
  H43      1.0000 0.51016  0.03750  0.75907  Biso   1.000  H 
  H44      1.0000 0.56536  0.08238  0.84749  Biso   1.000  H 
  H45      1.0000 0.52774  0.02572  0.85310  Biso   1.000  H 
  C54      1.0000 0.48539  0.09258  0.84652  Biso   1.000  C 
  H46      1.0000 0.49470  0.13122  0.85567  Biso   1.000  H 
  H47      1.0000 0.46644  0.07529  0.87757  Biso   1.000  H 
  H48      1.0000 0.45788  0.09469  0.81618  Biso   1.000  H 
  O48      1.0000 0.13260  0.00000  0.92810  Biso   1.000  O 
  C55      1.0000 0.11720  0.00000  0.88280  Biso   1.000  C 
  O49      1.0000 0.07190  0.00000  0.86740  Biso   1.000  O 
  C56      1.0000 0.15650  0.00000  0.84350  Biso   1.000  C 
  C57      1.0000 0.20580  0.00000  0.85530  Biso   1.000  C 
  C58      1.0000 0.14470  0.00000  0.79420  Biso   1.000  C 
  C59      1.0000 0.24200  0.00000  0.82050  Biso   1.000  C 
  H49      1.0000 0.21490  0.00000  0.88860  Biso   1.000  H 
  C60      1.0000 0.17950  0.00000  0.75800  Biso   1.000  C 
  H50      1.0000 0.11140  0.00000  0.78510  Biso   1.000  H 
  C61      1.0000 0.23070  0.00000  0.76930  Biso   1.000  C 
  C62      1.0000 0.26930  0.00000  0.73070  Biso   1.000  C 
  H51      1.0000 0.27510  0.00000  0.83050  Biso   1.000  H 
  C63      1.0000 0.32050  0.00000  0.74200  Biso   1.000  C 
  H52      1.0000 0.16950  0.00000  0.72490  Biso   1.000  H 
  C64      1.0000 0.25800  0.00000  0.67950  Biso   1.000  C 
  C65      1.0000 0.35530  0.00000  0.70580  Biso   1.000  C 
  H53      1.0000 0.33050  0.00000  0.77510  Biso   1.000  H 
  C66      1.0000 0.29420  0.00000  0.64470  Biso   1.000  C 
  H54      1.0000 0.22490  0.00000  0.66950  Biso   1.000  H 
  C67      1.0000 0.34350  0.00000  0.65650  Biso   1.000  C 
  C68      1.0000 0.38280  0.00000  0.61720  Biso   1.000  C 
  O50      1.0000 0.40693  0.98960  0.71953  Biso   1.000  O 
  H55      1.0000 0.28510  0.00000  0.61140  Biso   1.000  H 
  O51      1.0000 0.42810  0.00000  0.63260  Biso   1.000  O 
  O52      1.0000 0.36740  0.00000  0.57190  Biso   1.000  O 
  C69      1.0000 0.41138  0.96759  0.76742  Biso   1.000  C 
  C70      1.0000 0.45832  0.94396  0.77803  Biso   1.000  C 
  H56      1.0000 0.38480  0.93483  0.77512  Biso   1.000  H 
  H57      1.0000 0.40885  0.99802  0.79497  Biso   1.000  H 
  H58      1.0000 0.45228  0.90560  0.76457  Biso   1.000  H 
  C71      1.0000 0.46946  0.93736  0.83337  Biso   1.000  C 
  H59      1.0000 0.48984  0.96250  0.75907  Biso   1.000  H 
  H60      1.0000 0.43464  0.91762  0.84749  Biso   1.000  H 
  H61      1.0000 0.47226  0.97428  0.85310  Biso   1.000  H 
  C72      1.0000 0.51461  0.90742  0.84652  Biso   1.000  C 
  H62      1.0000 0.50530  0.86878  0.85567  Biso   1.000  H 
  H63      1.0000 0.53356  0.92471  0.87757  Biso   1.000  H 
  H64      1.0000 0.54212  0.90531  0.81618  Biso   1.000  H 
  O53      1.0000 0.07190  0.13260  0.00000  Biso   1.000  O 
  C73      1.0000 0.11720  0.11720  0.00000  Biso   1.000  C 
  O54      1.0000 0.13260  0.07190  0.00000  Biso   1.000  O 
  C74      1.0000 0.15650  0.15650  0.00000  Biso   1.000  C 
  C75      1.0000 0.14470  0.20580  0.00000  Biso   1.000  C 
  C76      1.0000 0.20580  0.14470  0.00000  Biso   1.000  C 
  C77      1.0000 0.17950  0.24200  0.00000  Biso   1.000  C 
  H65      1.0000 0.11140  0.21490  0.00000  Biso   1.000  H 
  C78      1.0000 0.24200  0.17950  0.00000  Biso   1.000  C 
  H66      1.0000 0.21490  0.11140  0.00000  Biso   1.000  H 
  C79      1.0000 0.23070  0.23070  0.00000  Biso   1.000  C 
  C80      1.0000 0.26930  0.26930  0.00000  Biso   1.000  C 
  H67      1.0000 0.16950  0.27510  0.00000  Biso   1.000  H 
  C81      1.0000 0.25800  0.32050  0.00000  Biso   1.000  C 
  H68      1.0000 0.27510  0.16950  0.00000  Biso   1.000  H 
  C82      1.0000 0.32050  0.25800  0.00000  Biso   1.000  C 
  C83      1.0000 0.29420  0.35530  0.00000  Biso   1.000  C 
  H69      1.0000 0.22490  0.33050  0.00000  Biso   1.000  H 
  C84      1.0000 0.35530  0.29420  0.00000  Biso   1.000  C 
  H70      1.0000 0.33050  0.22490  0.00000  Biso   1.000  H 
  C85      1.0000 0.34350  0.34350  0.00000  Biso   1.000  C 
  C86      1.0000 0.38280  0.38280  0.00000  Biso   1.000  C 
  O55      1.0000 0.27919  0.40786  0.01218  Biso   1.000  O 
  H71      1.0000 0.38860  0.28510  0.00000  Biso   1.000  H 
  O56      1.0000 0.36740  0.42810  0.00000  Biso   1.000  O 
  O57      1.0000 0.42810  0.36740  0.00000  Biso   1.000  O 
  C87      1.0000 0.22868  0.41418  0.02874  Biso   1.000  C 
  C88      1.0000 0.21824  0.46267  0.05735  Biso   1.000  C 
  H72      1.0000 0.21840  0.38559  0.05484  Biso   1.000  H 
  H73      1.0000 0.20416  0.41021  0.99586  Biso   1.000  H 
  H74      1.0000 0.22643  0.45379  0.09711  Biso   1.000  H 
  C89      1.0000 0.16286  0.47471  0.05841  Biso   1.000  C 
  H75      1.0000 0.23919  0.49463  0.04333  Biso   1.000  H 
  H76      1.0000 0.14866  0.44791  0.08623  Biso   1.000  H 
  H77      1.0000 0.14320  0.46738  0.02340  Biso   1.000  H 
  C90      1.0000 0.14661  0.52595  0.07874  Biso   1.000  C 
  H78      1.0000 0.15415  0.55578  0.05233  Biso   1.000  H 
  H79      1.0000 0.16447  0.53472  0.11469  Biso   1.000  H 
  H80      1.0000 0.10598  0.52374  0.08402  Biso   1.000  H 
  O58      1.0000 0.07190  0.86740  0.00000  Biso   1.000  O 
  C91      1.0000 0.11720  0.88280  0.00000  Biso   1.000  C 
  O59      1.0000 0.13260  0.92810  0.00000  Biso   1.000  O 
  C92      1.0000 0.15650  0.84350  0.00000  Biso   1.000  C 
  C93      1.0000 0.14470  0.79420  0.00000  Biso   1.000  C 
  C94      1.0000 0.20580  0.85530  0.00000  Biso   1.000  C 
  C95      1.0000 0.17950  0.75800  0.00000  Biso   1.000  C 
  H81      1.0000 0.11140  0.78510  0.00000  Biso   1.000  H 
  C96      1.0000 0.24200  0.82050  0.00000  Biso   1.000  C 
  H82      1.0000 0.21490  0.88860  0.00000  Biso   1.000  H 
  C97      1.0000 0.23070  0.76930  0.00000  Biso   1.000  C 
  C98      1.0000 0.26930  0.73070  0.00000  Biso   1.000  C 
  H83      1.0000 0.16950  0.72490  0.00000  Biso   1.000  H 
  C99      1.0000 0.25800  0.67950  0.00000  Biso   1.000  C 
  H84      1.0000 0.27510  0.83050  0.00000  Biso   1.000  H 
  C100     1.0000 0.32050  0.74200  0.00000  Biso   1.000  C 
  C101     1.0000 0.29420  0.64470  0.00000  Biso   1.000  C 
  H85      1.0000 0.22490  0.66950  0.00000  Biso   1.000  H 
  C102     1.0000 0.35530  0.70580  0.00000  Biso   1.000  C 
  H86      1.0000 0.33050  0.77510  0.00000  Biso   1.000  H 
  C103     1.0000 0.34350  0.65650  0.00000  Biso   1.000  C 
  C104     1.0000 0.38280  0.61720  0.00000  Biso   1.000  C 
  O60      1.0000 0.27919  0.59214  0.98782  Biso   1.000  O 
  H87      1.0000 0.38860  0.71490  0.00000  Biso   1.000  H 
  O61      1.0000 0.36740  0.57190  0.00000  Biso   1.000  O 
  O62      1.0000 0.42810  0.63260  0.00000  Biso   1.000  O 
  C105     1.0000 0.22868  0.58582  0.97126  Biso   1.000  C 
  C106     1.0000 0.21824  0.53733  0.94265  Biso   1.000  C 
  H88      1.0000 0.21840  0.61441  0.94516  Biso   1.000  H 
  H89      1.0000 0.20416  0.58979  0.00414  Biso   1.000  H 
  H90      1.0000 0.22643  0.54621  0.90289  Biso   1.000  H 
  C107     1.0000 0.16286  0.52529  0.94159  Biso   1.000  C 
  H91      1.0000 0.23919  0.50537  0.95667  Biso   1.000  H 
  H92      1.0000 0.14866  0.55209  0.91377  Biso   1.000  H 
  H93      1.0000 0.14320  0.53262  0.97660  Biso   1.000  H 
  C108     1.0000 0.14661  0.47405  0.92126  Biso   1.000  C 
  H94      1.0000 0.15415  0.44422  0.94767  Biso   1.000  H 
  H95      1.0000 0.16447  0.46528  0.88531  Biso   1.000  H 
  H96      1.0000 0.10598  0.47626  0.91598  Biso   1.000  H 
  O63      1.0000 0.92810  0.86740  0.00000  Biso   1.000  O 
  C109     1.0000 0.88280  0.88280  0.00000  Biso   1.000  C 
  O64      1.0000 0.86740  0.92810  0.00000  Biso   1.000  O 
  C110     1.0000 0.84350  0.84350  0.00000  Biso   1.000  C 
  C111     1.0000 0.85530  0.79420  0.00000  Biso   1.000  C 
  C112     1.0000 0.79420  0.85530  0.00000  Biso   1.000  C 
  C113     1.0000 0.82050  0.75800  0.00000  Biso   1.000  C 
  H97      1.0000 0.88860  0.78510  0.00000  Biso   1.000  H 
  C114     1.0000 0.75800  0.82050  0.00000  Biso   1.000  C 
  H98      1.0000 0.78510  0.88860  0.00000  Biso   1.000  H 
  C115     1.0000 0.76930  0.76930  0.00000  Biso   1.000  C 
  C116     1.0000 0.73070  0.73070  0.00000  Biso   1.000  C 
  H99      1.0000 0.83050  0.72490  0.00000  Biso   1.000  H 
  C117     1.0000 0.74200  0.67950  0.00000  Biso   1.000  C 
  H100     1.0000 0.72490  0.83050  0.00000  Biso   1.000  H 
  C118     1.0000 0.67950  0.74200  0.00000  Biso   1.000  C 
  C119     1.0000 0.70580  0.64470  0.00000  Biso   1.000  C 
  H101     1.0000 0.77510  0.66950  0.00000  Biso   1.000  H 
  C120     1.0000 0.64470  0.70580  0.00000  Biso   1.000  C 
  H102     1.0000 0.66950  0.77510  0.00000  Biso   1.000  H 
  C121     1.0000 0.65650  0.65650  0.00000  Biso   1.000  C 
  C122     1.0000 0.61720  0.61720  0.00000  Biso   1.000  C 
  O65      1.0000 0.72081  0.59214  0.01218  Biso   1.000  O 
  H103     1.0000 0.61140  0.71490  0.00000  Biso   1.000  H 
  O66      1.0000 0.63260  0.57190  0.00000  Biso   1.000  O 
  O67      1.0000 0.57190  0.63260  0.00000  Biso   1.000  O 
  C123     1.0000 0.77132  0.58582  0.02874  Biso   1.000  C 
  C124     1.0000 0.78176  0.53733  0.05735  Biso   1.000  C 
  H104     1.0000 0.78160  0.61441  0.05484  Biso   1.000  H 
  H105     1.0000 0.79584  0.58979  0.99586  Biso   1.000  H 
  H106     1.0000 0.77357  0.54621  0.09711  Biso   1.000  H 
  C125     1.0000 0.83714  0.52529  0.05841  Biso   1.000  C 
  H107     1.0000 0.76080  0.50537  0.04333  Biso   1.000  H 
  H108     1.0000 0.85134  0.55209  0.08623  Biso   1.000  H 
  H109     1.0000 0.85680  0.53262  0.02340  Biso   1.000  H 
  C126     1.0000 0.85339  0.47405  0.07874  Biso   1.000  C 
  H110     1.0000 0.84585  0.44422  0.05233  Biso   1.000  H 
  H111     1.0000 0.83553  0.46528  0.11469  Biso   1.000  H 
  H112     1.0000 0.89402  0.47626  0.08402  Biso   1.000  H 
  O68      1.0000 0.92810  0.13260  0.00000  Biso   1.000  O 
  C127     1.0000 0.88280  0.11720  0.00000  Biso   1.000  C 
  O69      1.0000 0.86740  0.07190  0.00000  Biso   1.000  O 
  C128     1.0000 0.84350  0.15650  0.00000  Biso   1.000  C 
  C129     1.0000 0.85530  0.20580  0.00000  Biso   1.000  C 
  C130     1.0000 0.79420  0.14470  0.00000  Biso   1.000  C 
  C131     1.0000 0.82050  0.24200  0.00000  Biso   1.000  C 
  H113     1.0000 0.88860  0.21490  0.00000  Biso   1.000  H 
  C132     1.0000 0.75800  0.17950  0.00000  Biso   1.000  C 
  H114     1.0000 0.78510  0.11140  0.00000  Biso   1.000  H 
  C133     1.0000 0.76930  0.23070  0.00000  Biso   1.000  C 
  C134     1.0000 0.73070  0.26930  0.00000  Biso   1.000  C 
  H115     1.0000 0.83050  0.27510  0.00000  Biso   1.000  H 
  C135     1.0000 0.74200  0.32050  0.00000  Biso   1.000  C 
  H116     1.0000 0.72490  0.16950  0.00000  Biso   1.000  H 
  C136     1.0000 0.67950  0.25800  0.00000  Biso   1.000  C 
  C137     1.0000 0.70580  0.35530  0.00000  Biso   1.000  C 
  H117     1.0000 0.77510  0.33050  0.00000  Biso   1.000  H 
  C138     1.0000 0.64470  0.29420  0.00000  Biso   1.000  C 
  H118     1.0000 0.66950  0.22490  0.00000  Biso   1.000  H 
  C139     1.0000 0.65650  0.34350  0.00000  Biso   1.000  C 
  C140     1.0000 0.61720  0.38280  0.00000  Biso   1.000  C 
  O70      1.0000 0.72081  0.40786  0.98782  Biso   1.000  O 
  H119     1.0000 0.61140  0.28510  0.00000  Biso   1.000  H 
  O71      1.0000 0.63260  0.42810  0.00000  Biso   1.000  O 
  O72      1.0000 0.57190  0.36740  0.00000  Biso   1.000  O 
  C141     1.0000 0.77132  0.41418  0.97126  Biso   1.000  C 
  C142     1.0000 0.78176  0.46267  0.94265  Biso   1.000  C 
  H120     1.0000 0.78160  0.38559  0.94516  Biso   1.000  H 
  H121     1.0000 0.79584  0.41021  0.00414  Biso   1.000  H 
  H122     1.0000 0.77357  0.45379  0.90289  Biso   1.000  H 
  C143     1.0000 0.83714  0.47471  0.94159  Biso   1.000  C 
  H123     1.0000 0.76080  0.49463  0.95667  Biso   1.000  H 
  H124     1.0000 0.85134  0.44791  0.91377  Biso   1.000  H 
  H125     1.0000 0.85680  0.46738  0.97660  Biso   1.000  H 
  C144     1.0000 0.85339  0.52595  0.92126  Biso   1.000  C 
  H126     1.0000 0.84585  0.55578  0.94767  Biso   1.000  H 
  H127     1.0000 0.83553  0.53472  0.88531  Biso   1.000  H 
  H128     1.0000 0.89402  0.52374  0.91598  Biso   1.000  H 
  O73      1.0000 0.00000  0.07190  0.13260  Biso   1.000  O 
  C145     1.0000 0.00000  0.11720  0.11720  Biso   1.000  C 
  O74      1.0000 0.00000  0.13260  0.07190  Biso   1.000  O 
  C146     1.0000 0.00000  0.15650  0.15650  Biso   1.000  C 
  C147     1.0000 0.00000  0.14470  0.20580  Biso   1.000  C 
  C148     1.0000 0.00000  0.20580  0.14470  Biso   1.000  C 
  C149     1.0000 0.00000  0.17950  0.24200  Biso   1.000  C 
  H129     1.0000 0.00000  0.11140  0.21490  Biso   1.000  H 
  C150     1.0000 0.00000  0.24200  0.17950  Biso   1.000  C 
  H130     1.0000 0.00000  0.21490  0.11140  Biso   1.000  H 
  C151     1.0000 0.00000  0.23070  0.23070  Biso   1.000  C 
  C152     1.0000 0.00000  0.26930  0.26930  Biso   1.000  C 
  H131     1.0000 0.00000  0.16950  0.27510  Biso   1.000  H 
  C153     1.0000 0.00000  0.25800  0.32050  Biso   1.000  C 
  H132     1.0000 0.00000  0.27510  0.16950  Biso   1.000  H 
  C154     1.0000 0.00000  0.32050  0.25800  Biso   1.000  C 
  C155     1.0000 0.00000  0.29420  0.35530  Biso   1.000  C 
  H133     1.0000 0.00000  0.22490  0.33050  Biso   1.000  H 
  C156     1.0000 0.00000  0.35530  0.29420  Biso   1.000  C 
  H134     1.0000 0.00000  0.33050  0.22490  Biso   1.000  H 
  C157     1.0000 0.00000  0.34350  0.34350  Biso   1.000  C 
  C158     1.0000 0.00000  0.38280  0.38280  Biso   1.000  C 
  O75      1.0000 0.01637  0.28210  0.40686  Biso   1.000  O 
  H135     1.0000 0.00000  0.38860  0.28510  Biso   1.000  H 
  O76      1.0000 0.00000  0.36740  0.42810  Biso   1.000  O 
  O77      1.0000 0.00000  0.42810  0.36740  Biso   1.000  O 
  C159     1.0000 0.02462  0.23256  0.42213  Biso   1.000  C 
  C160     1.0000 0.97321  0.20961  0.42907  Biso   1.000  C 
  H136     1.0000 0.04752  0.22991  0.45676  Biso   1.000  H 
  H137     1.0000 0.04687  0.21739  0.39165  Biso   1.000  H 
  H138     1.0000 0.96319  0.21477  0.46901  Biso   1.000  H 
  C161     1.0000 0.97448  0.15348  0.41966  Biso   1.000  C 
  H139     1.0000 0.94860  0.22965  0.40482  Biso   1.000  H 
  H140     1.0000 0.97699  0.13252  0.45609  Biso   1.000  H 
  H141     1.0000 0.00771  0.14506  0.39569  Biso   1.000  H 
  C162     1.0000 0.92895  0.13597  0.38831  Biso   1.000  C 
  H142     1.0000 0.94503  0.12886  0.35101  Biso   1.000  H 
  H143     1.0000 0.89825  0.16367  0.38453  Biso   1.000  H 
  H144     1.0000 0.91327  0.10057  0.40319  Biso   1.000  H 
  O78      1.0000 0.00000  0.07190  0.86740  Biso   1.000  O 
  C163     1.0000 0.00000  0.11720  0.88280  Biso   1.000  C 
  O79      1.0000 0.00000  0.13260  0.92810  Biso   1.000  O 
  C164     1.0000 0.00000  0.15650  0.84350  Biso   1.000  C 
  C165     1.0000 0.00000  0.14470  0.79420  Biso   1.000  C 
  C166     1.0000 0.00000  0.20580  0.85530  Biso   1.000  C 
  C167     1.0000 0.00000  0.17950  0.75800  Biso   1.000  C 
  H145     1.0000 0.00000  0.11140  0.78510  Biso   1.000  H 
  C168     1.0000 0.00000  0.24200  0.82050  Biso   1.000  C 
  H146     1.0000 0.00000  0.21490  0.88860  Biso   1.000  H 
  C169     1.0000 0.00000  0.23070  0.76930  Biso   1.000  C 
  C170     1.0000 0.00000  0.26930  0.73070  Biso   1.000  C 
  H147     1.0000 0.00000  0.16950  0.72490  Biso   1.000  H 
  C171     1.0000 0.00000  0.25800  0.67950  Biso   1.000  C 
  H148     1.0000 0.00000  0.27510  0.83050  Biso   1.000  H 
  C172     1.0000 0.00000  0.32050  0.74200  Biso   1.000  C 
  C173     1.0000 0.00000  0.29420  0.64470  Biso   1.000  C 
  H149     1.0000 0.00000  0.22490  0.66950  Biso   1.000  H 
  C174     1.0000 0.00000  0.35530  0.70580  Biso   1.000  C 
  H150     1.0000 0.00000  0.33050  0.77510  Biso   1.000  H 
  C175     1.0000 0.00000  0.34350  0.65650  Biso   1.000  C 
  C176     1.0000 0.00000  0.38280  0.61720  Biso   1.000  C 
  O80      1.0000 0.98363  0.28210  0.59314  Biso   1.000  O 
  H151     1.0000 0.00000  0.38860  0.71490  Biso   1.000  H 
  O81      1.0000 0.00000  0.36740  0.57190  Biso   1.000  O 
  O82      1.0000 0.00000  0.42810  0.63260  Biso   1.000  O 
  C177     1.0000 0.97538  0.23256  0.57787  Biso   1.000  C 
  C178     1.0000 0.02679  0.20961  0.57093  Biso   1.000  C 
  H152     1.0000 0.95248  0.22991  0.54324  Biso   1.000  H 
  H153     1.0000 0.95313  0.21739  0.60835  Biso   1.000  H 
  H154     1.0000 0.03681  0.21477  0.53099  Biso   1.000  H 
  C179     1.0000 0.02552  0.15348  0.58034  Biso   1.000  C 
  H155     1.0000 0.05140  0.22965  0.59518  Biso   1.000  H 
  H156     1.0000 0.02301  0.13252  0.54391  Biso   1.000  H 
  H157     1.0000 0.99229  0.14506  0.60431  Biso   1.000  H 
  C180     1.0000 0.07105  0.13597  0.61169  Biso   1.000  C 
  H158     1.0000 0.05497  0.12886  0.64899  Biso   1.000  H 
  H159     1.0000 0.10175  0.16367  0.61547  Biso   1.000  H 
  H160     1.0000 0.08673  0.10057  0.59681  Biso   1.000  H 
  O83      1.0000 0.00000  0.92810  0.86740  Biso   1.000  O 
  C181     1.0000 0.00000  0.88280  0.88280  Biso   1.000  C 
  O84      1.0000 0.00000  0.86740  0.92810  Biso   1.000  O 
  C182     1.0000 0.00000  0.84350  0.84350  Biso   1.000  C 
  C183     1.0000 0.00000  0.85530  0.79420  Biso   1.000  C 
  C184     1.0000 0.00000  0.79420  0.85530  Biso   1.000  C 
  C185     1.0000 0.00000  0.82050  0.75800  Biso   1.000  C 
  H161     1.0000 0.00000  0.88860  0.78510  Biso   1.000  H 
  C186     1.0000 0.00000  0.75800  0.82050  Biso   1.000  C 
  H162     1.0000 0.00000  0.78510  0.88860  Biso   1.000  H 
  C187     1.0000 0.00000  0.76930  0.76930  Biso   1.000  C 
  C188     1.0000 0.00000  0.73070  0.73070  Biso   1.000  C 
  H163     1.0000 0.00000  0.83050  0.72490  Biso   1.000  H 
  C189     1.0000 0.00000  0.74200  0.67950  Biso   1.000  C 
  H164     1.0000 0.00000  0.72490  0.83050  Biso   1.000  H 
  C190     1.0000 0.00000  0.67950  0.74200  Biso   1.000  C 
  C191     1.0000 0.00000  0.70580  0.64470  Biso   1.000  C 
  H165     1.0000 0.00000  0.77510  0.66950  Biso   1.000  H 
  C192     1.0000 0.00000  0.64470  0.70580  Biso   1.000  C 
  H166     1.0000 0.00000  0.66950  0.77510  Biso   1.000  H 
  C193     1.0000 0.00000  0.65650  0.65650  Biso   1.000  C 
  C194     1.0000 0.00000  0.61720  0.61720  Biso   1.000  C 
  O85      1.0000 0.01637  0.71789  0.59314  Biso   1.000  O 
  H167     1.0000 0.00000  0.61140  0.71490  Biso   1.000  H 
  O86      1.0000 0.00000  0.63260  0.57190  Biso   1.000  O 
  O87      1.0000 0.00000  0.57190  0.63260  Biso   1.000  O 
  C195     1.0000 0.02462  0.76744  0.57787  Biso   1.000  C 
  C196     1.0000 0.97321  0.79039  0.57093  Biso   1.000  C 
  H168     1.0000 0.04752  0.77009  0.54324  Biso   1.000  H 
  H169     1.0000 0.04687  0.78261  0.60835  Biso   1.000  H 
  H170     1.0000 0.96319  0.78522  0.53099  Biso   1.000  H 
  C197     1.0000 0.97448  0.84652  0.58034  Biso   1.000  C 
  H171     1.0000 0.94860  0.77035  0.59518  Biso   1.000  H 
  H172     1.0000 0.97699  0.86748  0.54391  Biso   1.000  H 
  H173     1.0000 0.00771  0.85494  0.60431  Biso   1.000  H 
  C198     1.0000 0.92895  0.86403  0.61169  Biso   1.000  C 
  H174     1.0000 0.94503  0.87114  0.64899  Biso   1.000  H 
  H175     1.0000 0.89825  0.83633  0.61547  Biso   1.000  H 
  H176     1.0000 0.91327  0.89943  0.59681  Biso   1.000  H 
  O88      1.0000 0.00000  0.92810  0.13260  Biso   1.000  O 
  C199     1.0000 0.00000  0.88280  0.11720  Biso   1.000  C 
  O89      1.0000 0.00000  0.86740  0.07190  Biso   1.000  O 
  C200     1.0000 0.00000  0.84350  0.15650  Biso   1.000  C 
  C201     1.0000 0.00000  0.85530  0.20580  Biso   1.000  C 
  C202     1.0000 0.00000  0.79420  0.14470  Biso   1.000  C 
  C203     1.0000 0.00000  0.82050  0.24200  Biso   1.000  C 
  H177     1.0000 0.00000  0.88860  0.21490  Biso   1.000  H 
  C204     1.0000 0.00000  0.75800  0.17950  Biso   1.000  C 
  H178     1.0000 0.00000  0.78510  0.11140  Biso   1.000  H 
  C205     1.0000 0.00000  0.76930  0.23070  Biso   1.000  C 
  C206     1.0000 0.00000  0.73070  0.26930  Biso   1.000  C 
  H179     1.0000 0.00000  0.83050  0.27510  Biso   1.000  H 
  C207     1.0000 0.00000  0.74200  0.32050  Biso   1.000  C 
  H180     1.0000 0.00000  0.72490  0.16950  Biso   1.000  H 
  C208     1.0000 0.00000  0.67950  0.25800  Biso   1.000  C 
  C209     1.0000 0.00000  0.70580  0.35530  Biso   1.000  C 
  H181     1.0000 0.00000  0.77510  0.33050  Biso   1.000  H 
  C210     1.0000 0.00000  0.64470  0.29420  Biso   1.000  C 
  H182     1.0000 0.00000  0.66950  0.22490  Biso   1.000  H 
  C211     1.0000 0.00000  0.65650  0.34350  Biso   1.000  C 
  C212     1.0000 0.00000  0.61720  0.38280  Biso   1.000  C 
  O90      1.0000 0.98363  0.71789  0.40686  Biso   1.000  O 
  H183     1.0000 0.00000  0.61140  0.28510  Biso   1.000  H 
  O91      1.0000 0.00000  0.63260  0.42810  Biso   1.000  O 
  O92      1.0000 0.00000  0.57190  0.36740  Biso   1.000  O 
  C213     1.0000 0.97538  0.76744  0.42213  Biso   1.000  C 
  C214     1.0000 0.02679  0.79039  0.42907  Biso   1.000  C 
  H184     1.0000 0.95248  0.77009  0.45676  Biso   1.000  H 
  H185     1.0000 0.95313  0.78261  0.39165  Biso   1.000  H 
  H186     1.0000 0.03681  0.78522  0.46901  Biso   1.000  H 
  C215     1.0000 0.02552  0.84652  0.41966  Biso   1.000  C 
  H187     1.0000 0.05140  0.77035  0.40482  Biso   1.000  H 
  H188     1.0000 0.02301  0.86748  0.45609  Biso   1.000  H 
  H189     1.0000 0.99229  0.85494  0.39569  Biso   1.000  H 
  C216     1.0000 0.07105  0.86403  0.38831  Biso   1.000  C 
  H190     1.0000 0.05497  0.87114  0.35101  Biso   1.000  H 
  H191     1.0000 0.10175  0.83633  0.38453  Biso   1.000  H 
  H192     1.0000 0.08673  0.89943  0.40319  Biso   1.000  H 
  O93      1.0000 0.13260  0.50000  0.57190  Biso   1.000  O 
  C217     1.0000 0.11720  0.50000  0.61720  Biso   1.000  C 
  O94      1.0000 0.07190  0.50000  0.63260  Biso   1.000  O 
  C218     1.0000 0.15650  0.50000  0.65650  Biso   1.000  C 
  C219     1.0000 0.20580  0.50000  0.64470  Biso   1.000  C 
  C220     1.0000 0.14470  0.50000  0.70580  Biso   1.000  C 
  C221     1.0000 0.24200  0.50000  0.67950  Biso   1.000  C 
  H193     1.0000 0.21490  0.50000  0.61140  Biso   1.000  H 
  C222     1.0000 0.17950  0.50000  0.74200  Biso   1.000  C 
  H194     1.0000 0.11140  0.50000  0.71490  Biso   1.000  H 
  C223     1.0000 0.23070  0.50000  0.73070  Biso   1.000  C 
  C224     1.0000 0.26930  0.50000  0.76930  Biso   1.000  C 
  H195     1.0000 0.27510  0.50000  0.66950  Biso   1.000  H 
  C225     1.0000 0.32050  0.50000  0.75800  Biso   1.000  C 
  H196     1.0000 0.16950  0.50000  0.77510  Biso   1.000  H 
  C226     1.0000 0.25800  0.50000  0.82050  Biso   1.000  C 
  C227     1.0000 0.35530  0.50000  0.79420  Biso   1.000  C 
  H197     1.0000 0.33050  0.50000  0.72490  Biso   1.000  H 
  C228     1.0000 0.29420  0.50000  0.85530  Biso   1.000  C 
  H198     1.0000 0.22490  0.50000  0.83050  Biso   1.000  H 
  C229     1.0000 0.34350  0.50000  0.84350  Biso   1.000  C 
  C230     1.0000 0.38280  0.50000  0.88280  Biso   1.000  C 
  O95      1.0000 0.40822  0.51197  0.77897  Biso   1.000  O 
  H199     1.0000 0.28510  0.50000  0.88860  Biso   1.000  H 
  O96      1.0000 0.42810  0.50000  0.86740  Biso   1.000  O 
  O97      1.0000 0.36740  0.50000  0.92810  Biso   1.000  O 
  C231     1.0000 0.41394  0.53157  0.72923  Biso   1.000  C 
  C232     1.0000 0.46359  0.55763  0.71690  Biso   1.000  C 
  H200     1.0000 0.38591  0.55837  0.71902  Biso   1.000  H 
  H201     1.0000 0.41003  0.49942  0.70339  Biso   1.000  H 
  H202     1.0000 0.45706  0.59720  0.72578  Biso   1.000  H 
  C233     1.0000 0.47419  0.56020  0.66122  Biso   1.000  C 
  H203     1.0000 0.49613  0.54269  0.73665  Biso   1.000  H 
  H204     1.0000 0.44186  0.58034  0.64530  Biso   1.000  H 
  H205     1.0000 0.47146  0.52282  0.64661  Biso   1.000  H 
  C234     1.0000 0.52217  0.58629  0.64353  Biso   1.000  C 
  H206     1.0000 0.55389  0.56285  0.65580  Biso   1.000  H 
  H207     1.0000 0.52555  0.62352  0.66014  Biso   1.000  H 
  H208     1.0000 0.52268  0.58935  0.60271  Biso   1.000  H 
  O98      1.0000 0.86740  0.50000  0.57190  Biso   1.000  O 
  C235     1.0000 0.88280  0.50000  0.61720  Biso   1.000  C 
  O99      1.0000 0.92810  0.50000  0.63260  Biso   1.000  O 
  C236     1.0000 0.84350  0.50000  0.65650  Biso   1.000  C 
  C237     1.0000 0.79420  0.50000  0.64470  Biso   1.000  C 
  C238     1.0000 0.85530  0.50000  0.70580  Biso   1.000  C 
  C239     1.0000 0.75800  0.50000  0.67950  Biso   1.000  C 
  H209     1.0000 0.78510  0.50000  0.61140  Biso   1.000  H 
  C240     1.0000 0.82050  0.50000  0.74200  Biso   1.000  C 
  H210     1.0000 0.88860  0.50000  0.71490  Biso   1.000  H 
  C241     1.0000 0.76930  0.50000  0.73070  Biso   1.000  C 
  C242     1.0000 0.73070  0.50000  0.76930  Biso   1.000  C 
  H211     1.0000 0.72490  0.50000  0.66950  Biso   1.000  H 
  C243     1.0000 0.67950  0.50000  0.75800  Biso   1.000  C 
  H212     1.0000 0.83050  0.50000  0.77510  Biso   1.000  H 
  C244     1.0000 0.74200  0.50000  0.82050  Biso   1.000  C 
  C245     1.0000 0.64470  0.50000  0.79420  Biso   1.000  C 
  H213     1.0000 0.66950  0.50000  0.72490  Biso   1.000  H 
  C246     1.0000 0.70580  0.50000  0.85530  Biso   1.000  C 
  H214     1.0000 0.77510  0.50000  0.83050  Biso   1.000  H 
  C247     1.0000 0.65650  0.50000  0.84350  Biso   1.000  C 
  C248     1.0000 0.61720  0.50000  0.88280  Biso   1.000  C 
  O100     1.0000 0.59178  0.48803  0.77897  Biso   1.000  O 
  H215     1.0000 0.71490  0.50000  0.88860  Biso   1.000  H 
  O101     1.0000 0.57190  0.50000  0.86740  Biso   1.000  O 
  O102     1.0000 0.63260  0.50000  0.92810  Biso   1.000  O 
  C249     1.0000 0.58606  0.46843  0.72923  Biso   1.000  C 
  C250     1.0000 0.53641  0.44237  0.71690  Biso   1.000  C 
  H216     1.0000 0.61409  0.44163  0.71902  Biso   1.000  H 
  H217     1.0000 0.58997  0.50058  0.70339  Biso   1.000  H 
  H218     1.0000 0.54294  0.40280  0.72578  Biso   1.000  H 
  C251     1.0000 0.52581  0.43980  0.66122  Biso   1.000  C 
  H219     1.0000 0.50387  0.45731  0.73665  Biso   1.000  H 
  H220     1.0000 0.55814  0.41966  0.64530  Biso   1.000  H 
  H221     1.0000 0.52854  0.47718  0.64661  Biso   1.000  H 
  C252     1.0000 0.47783  0.41371  0.64353  Biso   1.000  C 
  H222     1.0000 0.44611  0.43715  0.65580  Biso   1.000  H 
  H223     1.0000 0.47445  0.37648  0.66014  Biso   1.000  H 
  H224     1.0000 0.47732  0.41065  0.60271  Biso   1.000  H 
  O103     1.0000 0.86740  0.50000  0.42810  Biso   1.000  O 
  C253     1.0000 0.88280  0.50000  0.38280  Biso   1.000  C 
  O104     1.0000 0.92810  0.50000  0.36740  Biso   1.000  O 
  C254     1.0000 0.84350  0.50000  0.34350  Biso   1.000  C 
  C255     1.0000 0.79420  0.50000  0.35530  Biso   1.000  C 
  C256     1.0000 0.85530  0.50000  0.29420  Biso   1.000  C 
  C257     1.0000 0.75800  0.50000  0.32050  Biso   1.000  C 
  H225     1.0000 0.78510  0.50000  0.38860  Biso   1.000  H 
  C258     1.0000 0.82050  0.50000  0.25800  Biso   1.000  C 
  H226     1.0000 0.88860  0.50000  0.28510  Biso   1.000  H 
  C259     1.0000 0.76930  0.50000  0.26930  Biso   1.000  C 
  C260     1.0000 0.73070  0.50000  0.23070  Biso   1.000  C 
  H227     1.0000 0.72490  0.50000  0.33050  Biso   1.000  H 
  C261     1.0000 0.67950  0.50000  0.24200  Biso   1.000  C 
  H228     1.0000 0.83050  0.50000  0.22490  Biso   1.000  H 
  C262     1.0000 0.74200  0.50000  0.17950  Biso   1.000  C 
  C263     1.0000 0.64470  0.50000  0.20580  Biso   1.000  C 
  H229     1.0000 0.66950  0.50000  0.27510  Biso   1.000  H 
  C264     1.0000 0.70580  0.50000  0.14470  Biso   1.000  C 
  H230     1.0000 0.77510  0.50000  0.16950  Biso   1.000  H 
  C265     1.0000 0.65650  0.50000  0.15650  Biso   1.000  C 
  C266     1.0000 0.61720  0.50000  0.11720  Biso   1.000  C 
  O105     1.0000 0.59178  0.51197  0.22103  Biso   1.000  O 
  H231     1.0000 0.71490  0.50000  0.11140  Biso   1.000  H 
  O106     1.0000 0.57190  0.50000  0.13260  Biso   1.000  O 
  O107     1.0000 0.63260  0.50000  0.07190  Biso   1.000  O 
  C267     1.0000 0.58606  0.53157  0.27077  Biso   1.000  C 
  C268     1.0000 0.53641  0.55763  0.28310  Biso   1.000  C 
  H232     1.0000 0.61409  0.55837  0.28098  Biso   1.000  H 
  H233     1.0000 0.58997  0.49942  0.29661  Biso   1.000  H 
  H234     1.0000 0.54294  0.59720  0.27422  Biso   1.000  H 
  C269     1.0000 0.52581  0.56020  0.33878  Biso   1.000  C 
  H235     1.0000 0.50387  0.54269  0.26335  Biso   1.000  H 
  H236     1.0000 0.55814  0.58034  0.35470  Biso   1.000  H 
  H237     1.0000 0.52854  0.52282  0.35339  Biso   1.000  H 
  C270     1.0000 0.47783  0.58629  0.35647  Biso   1.000  C 
  H238     1.0000 0.44611  0.56285  0.34420  Biso   1.000  H 
  H239     1.0000 0.47445  0.62352  0.33986  Biso   1.000  H 
  H240     1.0000 0.47732  0.58935  0.39729  Biso   1.000  H 
  O108     1.0000 0.13260  0.50000  0.42810  Biso   1.000  O 
  C271     1.0000 0.11720  0.50000  0.38280  Biso   1.000  C 
  O109     1.0000 0.07190  0.50000  0.36740  Biso   1.000  O 
  C272     1.0000 0.15650  0.50000  0.34350  Biso   1.000  C 
  C273     1.0000 0.20580  0.50000  0.35530  Biso   1.000  C 
  C274     1.0000 0.14470  0.50000  0.29420  Biso   1.000  C 
  C275     1.0000 0.24200  0.50000  0.32050  Biso   1.000  C 
  H241     1.0000 0.21490  0.50000  0.38860  Biso   1.000  H 
  C276     1.0000 0.17950  0.50000  0.25800  Biso   1.000  C 
  H242     1.0000 0.11140  0.50000  0.28510  Biso   1.000  H 
  C277     1.0000 0.23070  0.50000  0.26930  Biso   1.000  C 
  C278     1.0000 0.26930  0.50000  0.23070  Biso   1.000  C 
  H243     1.0000 0.27510  0.50000  0.33050  Biso   1.000  H 
  C279     1.0000 0.32050  0.50000  0.24200  Biso   1.000  C 
  H244     1.0000 0.16950  0.50000  0.22490  Biso   1.000  H 
  C280     1.0000 0.25800  0.50000  0.17950  Biso   1.000  C 
  C281     1.0000 0.35530  0.50000  0.20580  Biso   1.000  C 
  H245     1.0000 0.33050  0.50000  0.27510  Biso   1.000  H 
  C282     1.0000 0.29420  0.50000  0.14470  Biso   1.000  C 
  H246     1.0000 0.22490  0.50000  0.16950  Biso   1.000  H 
  C283     1.0000 0.34350  0.50000  0.15650  Biso   1.000  C 
  C284     1.0000 0.38280  0.50000  0.11720  Biso   1.000  C 
  O110     1.0000 0.40822  0.48803  0.22103  Biso   1.000  O 
  H247     1.0000 0.28510  0.50000  0.11140  Biso   1.000  H 
  O111     1.0000 0.42810  0.50000  0.13260  Biso   1.000  O 
  O112     1.0000 0.36740  0.50000  0.07190  Biso   1.000  O 
  C285     1.0000 0.41394  0.46843  0.27077  Biso   1.000  C 
  C286     1.0000 0.46359  0.44237  0.28310  Biso   1.000  C 
  H248     1.0000 0.38591  0.44163  0.28098  Biso   1.000  H 
  H249     1.0000 0.41003  0.50058  0.29661  Biso   1.000  H 
  H250     1.0000 0.45706  0.40280  0.27422  Biso   1.000  H 
  C287     1.0000 0.47419  0.43980  0.33878  Biso   1.000  C 
  H251     1.0000 0.49613  0.45731  0.26335  Biso   1.000  H 
  H252     1.0000 0.44186  0.41966  0.35470  Biso   1.000  H 
  H253     1.0000 0.47146  0.47718  0.35339  Biso   1.000  H 
  C288     1.0000 0.52217  0.41371  0.35647  Biso   1.000  C 
  H254     1.0000 0.55389  0.43715  0.34420  Biso   1.000  H 
  H255     1.0000 0.52555  0.37648  0.33986  Biso   1.000  H 
  H256     1.0000 0.52268  0.41065  0.39729  Biso   1.000  H 
  O113     1.0000 0.07190  0.63260  0.50000  Biso   1.000  O 
  C289     1.0000 0.11720  0.61720  0.50000  Biso   1.000  C 
  O114     1.0000 0.13260  0.57190  0.50000  Biso   1.000  O 
  C290     1.0000 0.15650  0.65650  0.50000  Biso   1.000  C 
  C291     1.0000 0.14470  0.70580  0.50000  Biso   1.000  C 
  C292     1.0000 0.20580  0.64470  0.50000  Biso   1.000  C 
  C293     1.0000 0.17950  0.74200  0.50000  Biso   1.000  C 
  H257     1.0000 0.11140  0.71490  0.50000  Biso   1.000  H 
  C294     1.0000 0.24200  0.67950  0.50000  Biso   1.000  C 
  H258     1.0000 0.21490  0.61140  0.50000  Biso   1.000  H 
  C295     1.0000 0.23070  0.73070  0.50000  Biso   1.000  C 
  C296     1.0000 0.26930  0.76930  0.50000  Biso   1.000  C 
  H259     1.0000 0.16950  0.77510  0.50000  Biso   1.000  H 
  C297     1.0000 0.25800  0.82050  0.50000  Biso   1.000  C 
  H260     1.0000 0.27510  0.66950  0.50000  Biso   1.000  H 
  C298     1.0000 0.32050  0.75800  0.50000  Biso   1.000  C 
  C299     1.0000 0.29420  0.85530  0.50000  Biso   1.000  C 
  H261     1.0000 0.22490  0.83050  0.50000  Biso   1.000  H 
  C300     1.0000 0.35530  0.79420  0.50000  Biso   1.000  C 
  H262     1.0000 0.33050  0.72490  0.50000  Biso   1.000  H 
  C301     1.0000 0.34350  0.84350  0.50000  Biso   1.000  C 
  C302     1.0000 0.38280  0.88280  0.50000  Biso   1.000  C 
  O115     1.0000 0.27825  0.90526  0.52030  Biso   1.000  O 
  H263     1.0000 0.38860  0.78510  0.50000  Biso   1.000  H 
  O116     1.0000 0.36740  0.92810  0.50000  Biso   1.000  O 
  O117     1.0000 0.42810  0.86740  0.50000  Biso   1.000  O 
  C303     1.0000 0.22605  0.90597  0.53574  Biso   1.000  C 
  C304     1.0000 0.20812  0.95281  0.56297  Biso   1.000  C 
  H264     1.0000 0.21718  0.87612  0.56386  Biso   1.000  H 
  H265     1.0000 0.20288  0.90270  0.50197  Biso   1.000  H 
  H266     1.0000 0.21916  0.95152  0.60149  Biso   1.000  H 
  C305     1.0000 0.14950  0.95383  0.56424  Biso   1.000  C 
  H267     1.0000 0.22227  0.98650  0.54381  Biso   1.000  H 
  H268     1.0000 0.13727  0.91653  0.57773  Biso   1.000  H 
  H269     1.0000 0.13419  0.95932  0.52639  Biso   1.000  H 
  C306     1.0000 0.12652  0.99299  0.59924  Biso   1.000  C 
  H270     1.0000 0.12976  0.03091  0.58227  Biso   1.000  H 
  H271     1.0000 0.14434  0.99409  0.63662  Biso   1.000  H 
  H272     1.0000 0.08707  0.98324  0.60474  Biso   1.000  H 
  O118     1.0000 0.07190  0.36740  0.50000  Biso   1.000  O 
  C307     1.0000 0.11720  0.38280  0.50000  Biso   1.000  C 
  O119     1.0000 0.13260  0.42810  0.50000  Biso   1.000  O 
  C308     1.0000 0.15650  0.34350  0.50000  Biso   1.000  C 
  C309     1.0000 0.14470  0.29420  0.50000  Biso   1.000  C 
  C310     1.0000 0.20580  0.35530  0.50000  Biso   1.000  C 
  C311     1.0000 0.17950  0.25800  0.50000  Biso   1.000  C 
  H273     1.0000 0.11140  0.28510  0.50000  Biso   1.000  H 
  C312     1.0000 0.24200  0.32050  0.50000  Biso   1.000  C 
  H274     1.0000 0.21490  0.38860  0.50000  Biso   1.000  H 
  C313     1.0000 0.23070  0.26930  0.50000  Biso   1.000  C 
  C314     1.0000 0.26930  0.23070  0.50000  Biso   1.000  C 
  H275     1.0000 0.16950  0.22490  0.50000  Biso   1.000  H 
  C315     1.0000 0.25800  0.17950  0.50000  Biso   1.000  C 
  H276     1.0000 0.27510  0.33050  0.50000  Biso   1.000  H 
  C316     1.0000 0.32050  0.24200  0.50000  Biso   1.000  C 
  C317     1.0000 0.29420  0.14470  0.50000  Biso   1.000  C 
  H277     1.0000 0.22490  0.16950  0.50000  Biso   1.000  H 
  C318     1.0000 0.35530  0.20580  0.50000  Biso   1.000  C 
  H278     1.0000 0.33050  0.27510  0.50000  Biso   1.000  H 
  C319     1.0000 0.34350  0.15650  0.50000  Biso   1.000  C 
  C320     1.0000 0.38280  0.11720  0.50000  Biso   1.000  C 
  O120     1.0000 0.27825  0.09474  0.47970  Biso   1.000  O 
  H279     1.0000 0.38860  0.21490  0.50000  Biso   1.000  H 
  O121     1.0000 0.36740  0.07190  0.50000  Biso   1.000  O 
  O122     1.0000 0.42810  0.13260  0.50000  Biso   1.000  O 
  C321     1.0000 0.22605  0.09402  0.46426  Biso   1.000  C 
  C322     1.0000 0.20812  0.04718  0.43703  Biso   1.000  C 
  H280     1.0000 0.21718  0.12388  0.43614  Biso   1.000  H 
  H281     1.0000 0.20288  0.09730  0.49803  Biso   1.000  H 
  H282     1.0000 0.21916  0.04848  0.39851  Biso   1.000  H 
  C323     1.0000 0.14950  0.04617  0.43576  Biso   1.000  C 
  H283     1.0000 0.22227  0.01350  0.45619  Biso   1.000  H 
  H284     1.0000 0.13727  0.08347  0.42227  Biso   1.000  H 
  H285     1.0000 0.13419  0.04067  0.47361  Biso   1.000  H 
  C324     1.0000 0.12652  0.00701  0.40076  Biso   1.000  C 
  H286     1.0000 0.12976  0.96910  0.41773  Biso   1.000  H 
  H287     1.0000 0.14434  0.00591  0.36338  Biso   1.000  H 
  H288     1.0000 0.08707  0.01677  0.39526  Biso   1.000  H 
  O123     1.0000 0.92810  0.36740  0.50000  Biso   1.000  O 
  C325     1.0000 0.88280  0.38280  0.50000  Biso   1.000  C 
  O124     1.0000 0.86740  0.42810  0.50000  Biso   1.000  O 
  C326     1.0000 0.84350  0.34350  0.50000  Biso   1.000  C 
  C327     1.0000 0.85530  0.29420  0.50000  Biso   1.000  C 
  C328     1.0000 0.79420  0.35530  0.50000  Biso   1.000  C 
  C329     1.0000 0.82050  0.25800  0.50000  Biso   1.000  C 
  H289     1.0000 0.88860  0.28510  0.50000  Biso   1.000  H 
  C330     1.0000 0.75800  0.32050  0.50000  Biso   1.000  C 
  H290     1.0000 0.78510  0.38860  0.50000  Biso   1.000  H 
  C331     1.0000 0.76930  0.26930  0.50000  Biso   1.000  C 
  C332     1.0000 0.73070  0.23070  0.50000  Biso   1.000  C 
  H291     1.0000 0.83050  0.22490  0.50000  Biso   1.000  H 
  C333     1.0000 0.74200  0.17950  0.50000  Biso   1.000  C 
  H292     1.0000 0.72490  0.33050  0.50000  Biso   1.000  H 
  C334     1.0000 0.67950  0.24200  0.50000  Biso   1.000  C 
  C335     1.0000 0.70580  0.14470  0.50000  Biso   1.000  C 
  H293     1.0000 0.77510  0.16950  0.50000  Biso   1.000  H 
  C336     1.0000 0.64470  0.20580  0.50000  Biso   1.000  C 
  H294     1.0000 0.66950  0.27510  0.50000  Biso   1.000  H 
  C337     1.0000 0.65650  0.15650  0.50000  Biso   1.000  C 
  C338     1.0000 0.61720  0.11720  0.50000  Biso   1.000  C 
  O125     1.0000 0.72175  0.09474  0.52030  Biso   1.000  O 
  H295     1.0000 0.61140  0.21490  0.50000  Biso   1.000  H 
  O126     1.0000 0.63260  0.07190  0.50000  Biso   1.000  O 
  O127     1.0000 0.57190  0.13260  0.50000  Biso   1.000  O 
  C339     1.0000 0.77395  0.09402  0.53574  Biso   1.000  C 
  C340     1.0000 0.79188  0.04718  0.56297  Biso   1.000  C 
  H296     1.0000 0.78282  0.12388  0.56386  Biso   1.000  H 
  H297     1.0000 0.79712  0.09730  0.50197  Biso   1.000  H 
  H298     1.0000 0.78084  0.04848  0.60149  Biso   1.000  H 
  C341     1.0000 0.85051  0.04617  0.56424  Biso   1.000  C 
  H299     1.0000 0.77773  0.01350  0.54381  Biso   1.000  H 
  H300     1.0000 0.86273  0.08347  0.57773  Biso   1.000  H 
  H301     1.0000 0.86581  0.04067  0.52639  Biso   1.000  H 
  C342     1.0000 0.87348  0.00701  0.59924  Biso   1.000  C 
  H302     1.0000 0.87024  0.96910  0.58227  Biso   1.000  H 
  H303     1.0000 0.85566  0.00591  0.63662  Biso   1.000  H 
  H304     1.0000 0.91293  0.01677  0.60474  Biso   1.000  H 
  O128     1.0000 0.92810  0.63260  0.50000  Biso   1.000  O 
  C343     1.0000 0.88280  0.61720  0.50000  Biso   1.000  C 
  O129     1.0000 0.86740  0.57190  0.50000  Biso   1.000  O 
  C344     1.0000 0.84350  0.65650  0.50000  Biso   1.000  C 
  C345     1.0000 0.85530  0.70580  0.50000  Biso   1.000  C 
  C346     1.0000 0.79420  0.64470  0.50000  Biso   1.000  C 
  C347     1.0000 0.82050  0.74200  0.50000  Biso   1.000  C 
  H305     1.0000 0.88860  0.71490  0.50000  Biso   1.000  H 
  C348     1.0000 0.75800  0.67950  0.50000  Biso   1.000  C 
  H306     1.0000 0.78510  0.61140  0.50000  Biso   1.000  H 
  C349     1.0000 0.76930  0.73070  0.50000  Biso   1.000  C 
  C350     1.0000 0.73070  0.76930  0.50000  Biso   1.000  C 
  H307     1.0000 0.83050  0.77510  0.50000  Biso   1.000  H 
  C351     1.0000 0.74200  0.82050  0.50000  Biso   1.000  C 
  H308     1.0000 0.72490  0.66950  0.50000  Biso   1.000  H 
  C352     1.0000 0.67950  0.75800  0.50000  Biso   1.000  C 
  C353     1.0000 0.70580  0.85530  0.50000  Biso   1.000  C 
  H309     1.0000 0.77510  0.83050  0.50000  Biso   1.000  H 
  C354     1.0000 0.64470  0.79420  0.50000  Biso   1.000  C 
  H310     1.0000 0.66950  0.72490  0.50000  Biso   1.000  H 
  C355     1.0000 0.65650  0.84350  0.50000  Biso   1.000  C 
  C356     1.0000 0.61720  0.88280  0.50000  Biso   1.000  C 
  O130     1.0000 0.72175  0.90526  0.47970  Biso   1.000  O 
  H311     1.0000 0.61140  0.78510  0.50000  Biso   1.000  H 
  O131     1.0000 0.63260  0.92810  0.50000  Biso   1.000  O 
  O132     1.0000 0.57190  0.86740  0.50000  Biso   1.000  O 
  C357     1.0000 0.77395  0.90597  0.46426  Biso   1.000  C 
  C358     1.0000 0.79188  0.95281  0.43703  Biso   1.000  C 
  H312     1.0000 0.78282  0.87612  0.43614  Biso   1.000  H 
  H313     1.0000 0.79712  0.90270  0.49803  Biso   1.000  H 
  H314     1.0000 0.78084  0.95152  0.39851  Biso   1.000  H 
  C359     1.0000 0.85051  0.95383  0.43576  Biso   1.000  C 
  H315     1.0000 0.77773  0.98650  0.45619  Biso   1.000  H 
  H316     1.0000 0.86273  0.91653  0.42227  Biso   1.000  H 
  H317     1.0000 0.86581  0.95932  0.47361  Biso   1.000  H 
  C360     1.0000 0.87348  0.99299  0.40076  Biso   1.000  C 
  H318     1.0000 0.87024  0.03091  0.41773  Biso   1.000  H 
  H319     1.0000 0.85566  0.99409  0.36338  Biso   1.000  H 
  H320     1.0000 0.91293  0.98324  0.39526  Biso   1.000  H 
  O133     1.0000 0.50000  0.07190  0.63260  Biso   1.000  O 
  C361     1.0000 0.50000  0.11720  0.61720  Biso   1.000  C 
  O134     1.0000 0.50000  0.13260  0.57190  Biso   1.000  O 
  C362     1.0000 0.50000  0.15650  0.65650  Biso   1.000  C 
  C363     1.0000 0.50000  0.14470  0.70580  Biso   1.000  C 
  C364     1.0000 0.50000  0.20580  0.64470  Biso   1.000  C 
  C365     1.0000 0.50000  0.17950  0.74200  Biso   1.000  C 
  H321     1.0000 0.50000  0.11140  0.71490  Biso   1.000  H 
  C366     1.0000 0.50000  0.24200  0.67950  Biso   1.000  C 
  H322     1.0000 0.50000  0.21490  0.61140  Biso   1.000  H 
  C367     1.0000 0.50000  0.23070  0.73070  Biso   1.000  C 
  C368     1.0000 0.50000  0.26930  0.76930  Biso   1.000  C 
  H323     1.0000 0.50000  0.16950  0.77510  Biso   1.000  H 
  C369     1.0000 0.50000  0.25800  0.82050  Biso   1.000  C 
  H324     1.0000 0.50000  0.27510  0.66950  Biso   1.000  H 
  C370     1.0000 0.50000  0.32050  0.75800  Biso   1.000  C 
  C371     1.0000 0.50000  0.29420  0.85530  Biso   1.000  C 
  H325     1.0000 0.50000  0.22490  0.83050  Biso   1.000  H 
  C372     1.0000 0.50000  0.35530  0.79420  Biso   1.000  C 
  H326     1.0000 0.50000  0.33050  0.72490  Biso   1.000  H 
  C373     1.0000 0.50000  0.34350  0.84350  Biso   1.000  C 
  C374     1.0000 0.50000  0.38280  0.88280  Biso   1.000  C 
  O135     1.0000 0.51243  0.28024  0.90796  Biso   1.000  O 
  H327     1.0000 0.50000  0.38860  0.78510  Biso   1.000  H 
  O136     1.0000 0.50000  0.36740  0.92810  Biso   1.000  O 
  O137     1.0000 0.50000  0.42810  0.86740  Biso   1.000  O 
  C375     1.0000 0.52111  0.22803  0.91523  Biso   1.000  C 
  C376     1.0000 0.55948  0.21694  0.95426  Biso   1.000  C 
  H328     1.0000 0.54075  0.20764  0.88545  Biso   1.000  H 
  H329     1.0000 0.48564  0.21068  0.92473  Biso   1.000  H 
  H330     1.0000 0.59723  0.22863  0.94394  Biso   1.000  H 
  C377     1.0000 0.56009  0.15995  0.96094  Biso   1.000  C 
  H331     1.0000 0.54740  0.23611  0.98884  Biso   1.000  H 
  H332     1.0000 0.57803  0.14163  0.92796  Biso   1.000  H 
  H333     1.0000 0.52187  0.14432  0.96679  Biso   1.000  H 
  C378     1.0000 0.58929  0.14441  0.00693  Biso   1.000  C 
  H334     1.0000 0.57849  0.16780  0.03896  Biso   1.000  H 
  H335     1.0000 0.62916  0.14956  0.00089  Biso   1.000  H 
  H336     1.0000 0.58203  0.10525  0.01727  Biso   1.000  H 
  O138     1.0000 0.50000  0.07190  0.36740  Biso   1.000  O 
  C379     1.0000 0.50000  0.11720  0.38280  Biso   1.000  C 
  O139     1.0000 0.50000  0.13260  0.42810  Biso   1.000  O 
  C380     1.0000 0.50000  0.15650  0.34350  Biso   1.000  C 
  C381     1.0000 0.50000  0.14470  0.29420  Biso   1.000  C 
  C382     1.0000 0.50000  0.20580  0.35530  Biso   1.000  C 
  C383     1.0000 0.50000  0.17950  0.25800  Biso   1.000  C 
  H337     1.0000 0.50000  0.11140  0.28510  Biso   1.000  H 
  C384     1.0000 0.50000  0.24200  0.32050  Biso   1.000  C 
  H338     1.0000 0.50000  0.21490  0.38860  Biso   1.000  H 
  C385     1.0000 0.50000  0.23070  0.26930  Biso   1.000  C 
  C386     1.0000 0.50000  0.26930  0.23070  Biso   1.000  C 
  H339     1.0000 0.50000  0.16950  0.22490  Biso   1.000  H 
  C387     1.0000 0.50000  0.25800  0.17950  Biso   1.000  C 
  H340     1.0000 0.50000  0.27510  0.33050  Biso   1.000  H 
  C388     1.0000 0.50000  0.32050  0.24200  Biso   1.000  C 
  C389     1.0000 0.50000  0.29420  0.14470  Biso   1.000  C 
  H341     1.0000 0.50000  0.22490  0.16950  Biso   1.000  H 
  C390     1.0000 0.50000  0.35530  0.20580  Biso   1.000  C 
  H342     1.0000 0.50000  0.33050  0.27510  Biso   1.000  H 
  C391     1.0000 0.50000  0.34350  0.15650  Biso   1.000  C 
  C392     1.0000 0.50000  0.38280  0.11720  Biso   1.000  C 
  O140     1.0000 0.48757  0.28024  0.09204  Biso   1.000  O 
  H343     1.0000 0.50000  0.38860  0.21490  Biso   1.000  H 
  O141     1.0000 0.50000  0.36740  0.07190  Biso   1.000  O 
  O142     1.0000 0.50000  0.42810  0.13260  Biso   1.000  O 
  C393     1.0000 0.47889  0.22803  0.08477  Biso   1.000  C 
  C394     1.0000 0.44052  0.21694  0.04574  Biso   1.000  C 
  H344     1.0000 0.45925  0.20764  0.11455  Biso   1.000  H 
  H345     1.0000 0.51436  0.21068  0.07527  Biso   1.000  H 
  H346     1.0000 0.40277  0.22863  0.05606  Biso   1.000  H 
  C395     1.0000 0.43991  0.15995  0.03906  Biso   1.000  C 
  H347     1.0000 0.45260  0.23611  0.01116  Biso   1.000  H 
  H348     1.0000 0.42197  0.14163  0.07204  Biso   1.000  H 
  H349     1.0000 0.47813  0.14432  0.03321  Biso   1.000  H 
  C396     1.0000 0.41071  0.14441  0.99307  Biso   1.000  C 
  H350     1.0000 0.42151  0.16780  0.96104  Biso   1.000  H 
  H351     1.0000 0.37084  0.14956  0.99911  Biso   1.000  H 
  H352     1.0000 0.41797  0.10525  0.98273  Biso   1.000  H 
  O143     1.0000 0.50000  0.92810  0.36740  Biso   1.000  O 
  C397     1.0000 0.50000  0.88280  0.38280  Biso   1.000  C 
  O144     1.0000 0.50000  0.86740  0.42810  Biso   1.000  O 
  C398     1.0000 0.50000  0.84350  0.34350  Biso   1.000  C 
  C399     1.0000 0.50000  0.85530  0.29420  Biso   1.000  C 
  C400     1.0000 0.50000  0.79420  0.35530  Biso   1.000  C 
  C401     1.0000 0.50000  0.82050  0.25800  Biso   1.000  C 
  H353     1.0000 0.50000  0.88860  0.28510  Biso   1.000  H 
  C402     1.0000 0.50000  0.75800  0.32050  Biso   1.000  C 
  H354     1.0000 0.50000  0.78510  0.38860  Biso   1.000  H 
  C403     1.0000 0.50000  0.76930  0.26930  Biso   1.000  C 
  C404     1.0000 0.50000  0.73070  0.23070  Biso   1.000  C 
  H355     1.0000 0.50000  0.83050  0.22490  Biso   1.000  H 
  C405     1.0000 0.50000  0.74200  0.17950  Biso   1.000  C 
  H356     1.0000 0.50000  0.72490  0.33050  Biso   1.000  H 
  C406     1.0000 0.50000  0.67950  0.24200  Biso   1.000  C 
  C407     1.0000 0.50000  0.70580  0.14470  Biso   1.000  C 
  H357     1.0000 0.50000  0.77510  0.16950  Biso   1.000  H 
  C408     1.0000 0.50000  0.64470  0.20580  Biso   1.000  C 
  H358     1.0000 0.50000  0.66950  0.27510  Biso   1.000  H 
  C409     1.0000 0.50000  0.65650  0.15650  Biso   1.000  C 
  C410     1.0000 0.50000  0.61720  0.11720  Biso   1.000  C 
  O145     1.0000 0.51243  0.71976  0.09204  Biso   1.000  O 
  H359     1.0000 0.50000  0.61140  0.21490  Biso   1.000  H 
  O146     1.0000 0.50000  0.63260  0.07190  Biso   1.000  O 
  O147     1.0000 0.50000  0.57190  0.13260  Biso   1.000  O 
  C411     1.0000 0.52111  0.77197  0.08477  Biso   1.000  C 
  C412     1.0000 0.55948  0.78306  0.04574  Biso   1.000  C 
  H360     1.0000 0.54075  0.79236  0.11455  Biso   1.000  H 
  H361     1.0000 0.48564  0.78932  0.07527  Biso   1.000  H 
  H362     1.0000 0.59723  0.77137  0.05606  Biso   1.000  H 
  C413     1.0000 0.56009  0.84005  0.03906  Biso   1.000  C 
  H363     1.0000 0.54740  0.76389  0.01116  Biso   1.000  H 
  H364     1.0000 0.57803  0.85837  0.07204  Biso   1.000  H 
  H365     1.0000 0.52187  0.85568  0.03321  Biso   1.000  H 
  C414     1.0000 0.58929  0.85559  0.99307  Biso   1.000  C 
  H366     1.0000 0.57849  0.83220  0.96104  Biso   1.000  H 
  H367     1.0000 0.62916  0.85044  0.99911  Biso   1.000  H 
  H368     1.0000 0.58203  0.89475  0.98273  Biso   1.000  H 
  O148     1.0000 0.50000  0.92810  0.63260  Biso   1.000  O 
  C415     1.0000 0.50000  0.88280  0.61720  Biso   1.000  C 
  O149     1.0000 0.50000  0.86740  0.57190  Biso   1.000  O 
  C416     1.0000 0.50000  0.84350  0.65650  Biso   1.000  C 
  C417     1.0000 0.50000  0.85530  0.70580  Biso   1.000  C 
  C418     1.0000 0.50000  0.79420  0.64470  Biso   1.000  C 
  C419     1.0000 0.50000  0.82050  0.74200  Biso   1.000  C 
  H369     1.0000 0.50000  0.88860  0.71490  Biso   1.000  H 
  C420     1.0000 0.50000  0.75800  0.67950  Biso   1.000  C 
  H370     1.0000 0.50000  0.78510  0.61140  Biso   1.000  H 
  C421     1.0000 0.50000  0.76930  0.73070  Biso   1.000  C 
  C422     1.0000 0.50000  0.73070  0.76930  Biso   1.000  C 
  H371     1.0000 0.50000  0.83050  0.77510  Biso   1.000  H 
  C423     1.0000 0.50000  0.74200  0.82050  Biso   1.000  C 
  H372     1.0000 0.50000  0.72490  0.66950  Biso   1.000  H 
  C424     1.0000 0.50000  0.67950  0.75800  Biso   1.000  C 
  C425     1.0000 0.50000  0.70580  0.85530  Biso   1.000  C 
  H373     1.0000 0.50000  0.77510  0.83050  Biso   1.000  H 
  C426     1.0000 0.50000  0.64470  0.79420  Biso   1.000  C 
  H374     1.0000 0.50000  0.66950  0.72490  Biso   1.000  H 
  C427     1.0000 0.50000  0.65650  0.84350  Biso   1.000  C 
  C428     1.0000 0.50000  0.61720  0.88280  Biso   1.000  C 
  O150     1.0000 0.48757  0.71976  0.90796  Biso   1.000  O 
  H375     1.0000 0.50000  0.61140  0.78510  Biso   1.000  H 
  O151     1.0000 0.50000  0.63260  0.92810  Biso   1.000  O 
  O152     1.0000 0.50000  0.57190  0.86740  Biso   1.000  O 
  C429     1.0000 0.47889  0.77197  0.91523  Biso   1.000  C 
  C430     1.0000 0.44052  0.78306  0.95426  Biso   1.000  C 
  H376     1.0000 0.45925  0.79236  0.88545  Biso   1.000  H 
  H377     1.0000 0.51436  0.78932  0.92473  Biso   1.000  H 
  H378     1.0000 0.40277  0.77137  0.94394  Biso   1.000  H 
  C431     1.0000 0.43991  0.84005  0.96094  Biso   1.000  C 
  H379     1.0000 0.45260  0.76389  0.98884  Biso   1.000  H 
  H380     1.0000 0.42197  0.85837  0.92796  Biso   1.000  H 
  H381     1.0000 0.47813  0.85568  0.96679  Biso   1.000  H 
  C432     1.0000 0.41071  0.85559  0.00693  Biso   1.000  C 
  H382     1.0000 0.42151  0.83220  0.03896  Biso   1.000  H 
  H383     1.0000 0.37084  0.85044  0.00089  Biso   1.000  H 
  H384     1.0000 0.41797  0.89475  0.01727  Biso   1.000  H 
