data_image0
_cell_length_a       20.7004
_cell_length_b       20.7004
_cell_length_c       20.7004
_cell_angle_alpha    90
_cell_angle_beta     90
_cell_angle_gamma    90

_symmetry_space_group_name_H-M    "P 1"
_symmetry_int_tables_number       1

loop_
  _symmetry_equiv_pos_as_xyz
  'x, y, z'

loop_
  _atom_site_label
  _atom_site_occupancy
  _atom_site_fract_x
  _atom_site_fract_y
  _atom_site_fract_z
  _atom_site_thermal_displace_type
  _atom_site_B_iso_or_equiv
  _atom_site_type_symbol
  Zr1      1.0000 0.11989  0.00000  0.00000  Biso   1.000  Zr
  Zr2      1.0000 0.11989  0.50000  0.50000  Biso   1.000  Zr
  Zr3      1.0000 0.61989  0.00000  0.50000  Biso   1.000  Zr
  Zr4      1.0000 0.61989  0.50000  0.00000  Biso   1.000  Zr
  Zr5      1.0000 0.88011  0.00000  0.00000  Biso   1.000  Zr
  Zr6      1.0000 0.88011  0.50000  0.50000  Biso   1.000  Zr
  Zr7      1.0000 0.38011  0.00000  0.50000  Biso   1.000  Zr
  Zr8      1.0000 0.38011  0.50000  0.00000  Biso   1.000  Zr
  Zr9      1.0000 0.00000  0.11989  0.00000  Biso   1.000  Zr
  Zr10     1.0000 0.00000  0.61989  0.50000  Biso   1.000  Zr
  Zr11     1.0000 0.50000  0.11989  0.50000  Biso   1.000  Zr
  Zr12     1.0000 0.50000  0.61989  0.00000  Biso   1.000  Zr
  Zr13     1.0000 0.00000  0.88011  0.00000  Biso   1.000  Zr
  Zr14     1.0000 0.00000  0.38011  0.50000  Biso   1.000  Zr
  Zr15     1.0000 0.50000  0.88011  0.50000  Biso   1.000  Zr
  Zr16     1.0000 0.50000  0.38011  0.00000  Biso   1.000  Zr
  Zr17     1.0000 0.00000  0.00000  0.11989  Biso   1.000  Zr
  Zr18     1.0000 0.00000  0.50000  0.61989  Biso   1.000  Zr
  Zr19     1.0000 0.50000  0.00000  0.61989  Biso   1.000  Zr
  Zr20     1.0000 0.50000  0.50000  0.11989  Biso   1.000  Zr
  Zr21     1.0000 0.00000  0.00000  0.88011  Biso   1.000  Zr
  Zr22     1.0000 0.00000  0.50000  0.38011  Biso   1.000  Zr
  Zr23     1.0000 0.50000  0.00000  0.38011  Biso   1.000  Zr
  Zr24     1.0000 0.50000  0.50000  0.88011  Biso   1.000  Zr
  O1       1.0000 0.05610  0.44390  0.44390  Biso   1.000  O 
  O2       1.0000 0.55610  0.94390  0.44390  Biso   1.000  O 
  O3       1.0000 0.55610  0.44390  0.94390  Biso   1.000  O 
  O4       1.0000 0.44390  0.05610  0.44390  Biso   1.000  O 
  O5       1.0000 0.44390  0.55610  0.94390  Biso   1.000  O 
  O6       1.0000 0.94390  0.94390  0.05610  Biso   1.000  O 
  O7       1.0000 0.94390  0.44390  0.55610  Biso   1.000  O 
  O8       1.0000 0.05610  0.05610  0.05610  Biso   1.000  O 
  O9       1.0000 0.55610  0.55610  0.05610  Biso   1.000  O 
  O10      1.0000 0.94390  0.05610  0.05610  Biso   1.000  O 
  O11      1.0000 0.94390  0.55610  0.55610  Biso   1.000  O 
  O12      1.0000 0.44390  0.05610  0.55610  Biso   1.000  O 
  O13      1.0000 0.44390  0.55610  0.05610  Biso   1.000  O 
  O14      1.0000 0.05610  0.94390  0.05610  Biso   1.000  O 
  O15      1.0000 0.05610  0.44390  0.55610  Biso   1.000  O 
  O16      1.0000 0.55610  0.94390  0.55610  Biso   1.000  O 
  O17      1.0000 0.55610  0.44390  0.05610  Biso   1.000  O 
  O18      1.0000 0.94390  0.94390  0.94390  Biso   1.000  O 
  O19      1.0000 0.94390  0.44390  0.44390  Biso   1.000  O 
  O20      1.0000 0.44390  0.94390  0.44390  Biso   1.000  O 
  O21      1.0000 0.44390  0.44390  0.94390  Biso   1.000  O 
  O22      1.0000 0.05610  0.05610  0.94390  Biso   1.000  O 
  O23      1.0000 0.05610  0.55610  0.44390  Biso   1.000  O 
  O24      1.0000 0.55610  0.05610  0.44390  Biso   1.000  O 
  C1       1.0000 0.15360  0.00000  0.84640  Biso   1.000  C 
  O25      1.0000 0.17046  0.00000  0.90471  Biso   1.000  O 
  O26      1.0000 0.09529  0.00000  0.82954  Biso   1.000  O 
  C2       1.0000 0.20500  0.00000  0.79500  Biso   1.000  C 
  C3       1.0000 0.18437  0.00000  0.73249  Biso   1.000  C 
  N1       1.0000 0.11811  0.97225  0.71708  Biso   1.000  N 
  H1       1.0000 0.22128  0.00000  0.63051  Biso   1.000  H 
  C4       1.0000 0.23249  0.00000  0.68442  Biso   1.000  C 
  C5       1.0000 0.29500  0.00000  0.70500  Biso   1.000  C 
  C6       1.0000 0.31558  0.00000  0.76751  Biso   1.000  C 
  C7       1.0000 0.26751  0.00000  0.81563  Biso   1.000  C 
  H2       1.0000 0.27872  0.00000  0.86954  Biso   1.000  H 
  H3       1.0000 0.36949  0.00000  0.77872  Biso   1.000  H 
  O27      1.0000 0.40470  0.00000  0.67046  Biso   1.000  O 
  C8       1.0000 0.34640  0.00000  0.65360  Biso   1.000  C 
  O28      1.0000 0.32954  0.00000  0.59529  Biso   1.000  O 
  H4       1.0000 0.10111  0.99925  0.67771  Biso   1.000  H 
  C9       1.0000 0.12738  0.90970  0.68795  Biso   1.000  C 
  H5       1.0000 0.16813  0.91238  0.65596  Biso   1.000  H 
  H6       1.0000 0.08538  0.89393  0.65303  Biso   1.000  H 
  C10      1.0000 0.13844  0.85612  0.74010  Biso   1.000  C 
  H7       1.0000 0.11030  0.87506  0.78309  Biso   1.000  H 
  C11      1.0000 0.20904  0.84405  0.76542  Biso   1.000  C 
  H8       1.0000 0.11953  0.81041  0.72349  Biso   1.000  H 
  H9       1.0000 0.21884  0.86232  0.81471  Biso   1.000  H 
  H10      1.0000 0.24368  0.86615  0.73272  Biso   1.000  H 
  H11      1.0000 0.21921  0.79031  0.76606  Biso   1.000  H 
  C12      1.0000 0.15360  0.50000  0.34640  Biso   1.000  C 
  O29      1.0000 0.17046  0.50000  0.40471  Biso   1.000  O 
  O30      1.0000 0.09529  0.50000  0.32954  Biso   1.000  O 
  C13      1.0000 0.20500  0.50000  0.29500  Biso   1.000  C 
  C14      1.0000 0.18437  0.50000  0.23249  Biso   1.000  C 
  N2       1.0000 0.11819  0.47650  0.21716  Biso   1.000  N 
  H12      1.0000 0.22128  0.50000  0.13051  Biso   1.000  H 
  C15      1.0000 0.23249  0.50000  0.18442  Biso   1.000  C 
  C16      1.0000 0.29500  0.50000  0.20500  Biso   1.000  C 
  C17      1.0000 0.31558  0.50000  0.26751  Biso   1.000  C 
  C18      1.0000 0.26751  0.50000  0.31563  Biso   1.000  C 
  H13      1.0000 0.27872  0.50000  0.36954  Biso   1.000  H 
  H14      1.0000 0.36949  0.50000  0.27872  Biso   1.000  H 
  O31      1.0000 0.40470  0.50000  0.17046  Biso   1.000  O 
  C19      1.0000 0.34640  0.50000  0.15360  Biso   1.000  C 
  O32      1.0000 0.32954  0.50000  0.09529  Biso   1.000  O 
  H15      1.0000 0.11685  0.42704  0.22277  Biso   1.000  H 
  C20      1.0000 0.08359  0.50050  0.16113  Biso   1.000  C 
  H16      1.0000 0.09349  0.55205  0.15121  Biso   1.000  H 
  H17      1.0000 0.03251  0.49668  0.17524  Biso   1.000  H 
  C21      1.0000 0.09586  0.45954  0.09901  Biso   1.000  C 
  H18      1.0000 0.05708  0.46984  0.06478  Biso   1.000  H 
  C22      1.0000 0.10260  0.38583  0.11042  Biso   1.000  C 
  H19      1.0000 0.14238  0.47657  0.07583  Biso   1.000  H 
  H20      1.0000 0.15059  0.37555  0.13040  Biso   1.000  H 
  H21      1.0000 0.09334  0.35732  0.06619  Biso   1.000  H 
  H22      1.0000 0.06936  0.37255  0.14841  Biso   1.000  H 
  C23      1.0000 0.65360  0.00000  0.34640  Biso   1.000  C 
  O33      1.0000 0.67046  0.00000  0.40471  Biso   1.000  O 
  O34      1.0000 0.59529  0.00000  0.32954  Biso   1.000  O 
  C24      1.0000 0.70500  0.00000  0.29500  Biso   1.000  C 
  C25      1.0000 0.68437  0.00000  0.23249  Biso   1.000  C 
  N3       1.0000 0.62046  0.96582  0.21308  Biso   1.000  N 
  H23      1.0000 0.72128  0.00000  0.13051  Biso   1.000  H 
  C26      1.0000 0.73248  0.00000  0.18442  Biso   1.000  C 
  C27      1.0000 0.79499  0.00000  0.20500  Biso   1.000  C 
  C28      1.0000 0.81558  0.00000  0.26751  Biso   1.000  C 
  C29      1.0000 0.76751  0.00000  0.31563  Biso   1.000  C 
  H24      1.0000 0.77872  0.00000  0.36954  Biso   1.000  H 
  H25      1.0000 0.86949  0.00000  0.27872  Biso   1.000  H 
  O35      1.0000 0.90470  0.00000  0.17046  Biso   1.000  O 
  C30      1.0000 0.84639  0.00000  0.15360  Biso   1.000  C 
  O36      1.0000 0.82953  0.00000  0.09529  Biso   1.000  O 
  H26      1.0000 0.60846  0.93182  0.24904  Biso   1.000  H 
  C31      1.0000 0.62400  0.92501  0.15338  Biso   1.000  C 
  H27      1.0000 0.64257  0.95066  0.11044  Biso   1.000  H 
  H28      1.0000 0.57303  0.91531  0.13932  Biso   1.000  H 
  C32      1.0000 0.65072  0.85679  0.16092  Biso   1.000  C 
  H29      1.0000 0.63392  0.83822  0.20791  Biso   1.000  H 
  C33      1.0000 0.72262  0.85371  0.16596  Biso   1.000  C 
  H30      1.0000 0.63243  0.82328  0.12247  Biso   1.000  H 
  H31      1.0000 0.74481  0.88019  0.12310  Biso   1.000  H 
  H32      1.0000 0.73927  0.80417  0.15970  Biso   1.000  H 
  H33      1.0000 0.73823  0.87500  0.21252  Biso   1.000  H 
  C34      1.0000 0.65360  0.50000  0.84640  Biso   1.000  C 
  O37      1.0000 0.67046  0.50000  0.90471  Biso   1.000  O 
  O38      1.0000 0.59529  0.50000  0.82954  Biso   1.000  O 
  C35      1.0000 0.70500  0.50000  0.79500  Biso   1.000  C 
  C36      1.0000 0.68437  0.50000  0.73249  Biso   1.000  C 
  N4       1.0000 0.62089  0.46425  0.71711  Biso   1.000  N 
  H34      1.0000 0.72128  0.50000  0.63051  Biso   1.000  H 
  C37      1.0000 0.73248  0.50000  0.68442  Biso   1.000  C 
  C38      1.0000 0.79499  0.50000  0.70500  Biso   1.000  C 
  C39      1.0000 0.81558  0.50000  0.76751  Biso   1.000  C 
  C40      1.0000 0.76751  0.50000  0.81563  Biso   1.000  C 
  H35      1.0000 0.77872  0.50000  0.86954  Biso   1.000  H 
  H36      1.0000 0.86949  0.50000  0.77872  Biso   1.000  H 
  O39      1.0000 0.90470  0.50000  0.67046  Biso   1.000  O 
  C41      1.0000 0.84639  0.50000  0.65360  Biso   1.000  C 
  O40      1.0000 0.82953  0.50000  0.59529  Biso   1.000  O 
  H37      1.0000 0.61424  0.42674  0.75168  Biso   1.000  H 
  C42      1.0000 0.61954  0.42861  0.65555  Biso   1.000  C 
  H38      1.0000 0.63591  0.45446  0.61212  Biso   1.000  H 
  H39      1.0000 0.56654  0.42135  0.64557  Biso   1.000  H 
  C43      1.0000 0.64680  0.35694  0.66092  Biso   1.000  C 
  H40      1.0000 0.62682  0.33078  0.70482  Biso   1.000  H 
  C44      1.0000 0.72011  0.34572  0.65666  Biso   1.000  C 
  H41      1.0000 0.62832  0.33117  0.61781  Biso   1.000  H 
  H42      1.0000 0.74191  0.37242  0.61688  Biso   1.000  H 
  H43      1.0000 0.73330  0.29401  0.64872  Biso   1.000  H 
  H44      1.0000 0.73932  0.36025  0.70344  Biso   1.000  H 
  C45      1.0000 0.84640  0.00000  0.84640  Biso   1.000  C 
  O41      1.0000 0.82954  0.00000  0.90471  Biso   1.000  O 
  O42      1.0000 0.90471  0.00000  0.82954  Biso   1.000  O 
  C46      1.0000 0.79500  0.00000  0.79500  Biso   1.000  C 
  C47      1.0000 0.81563  0.00000  0.73249  Biso   1.000  C 
  N5       1.0000 0.88192  0.97479  0.71249  Biso   1.000  N 
  H45      1.0000 0.77872  0.00000  0.63051  Biso   1.000  H 
  C48      1.0000 0.76752  0.00000  0.68442  Biso   1.000  C 
  C49      1.0000 0.70501  0.00000  0.70500  Biso   1.000  C 
  C50      1.0000 0.68442  0.00000  0.76751  Biso   1.000  C 
  C51      1.0000 0.73249  0.00000  0.81563  Biso   1.000  C 
  H46      1.0000 0.72128  0.00000  0.86954  Biso   1.000  H 
  H47      1.0000 0.63051  0.00000  0.77872  Biso   1.000  H 
  O43      1.0000 0.59530  0.00000  0.67046  Biso   1.000  O 
  C52      1.0000 0.65361  0.00000  0.65360  Biso   1.000  C 
  O44      1.0000 0.67047  0.00000  0.59529  Biso   1.000  O 
  H48      1.0000 0.90461  0.01440  0.69105  Biso   1.000  H 
  C53      1.0000 0.87929  0.91570  0.66921  Biso   1.000  C 
  H49      1.0000 0.83120  0.90855  0.64514  Biso   1.000  H 
  H50      1.0000 0.88896  0.87147  0.69826  Biso   1.000  H 
  C54      1.0000 0.93037  0.91921  0.61578  Biso   1.000  C 
  H51      1.0000 0.91910  0.96381  0.58730  Biso   1.000  H 
  C55      1.0000 0.92590  0.86516  0.56810  Biso   1.000  C 
  H52      1.0000 0.98056  0.92463  0.63395  Biso   1.000  H 
  H53      1.0000 0.89940  0.88182  0.52268  Biso   1.000  H 
  H54      1.0000 0.90153  0.82247  0.58873  Biso   1.000  H 
  H55      1.0000 0.97683  0.85103  0.55408  Biso   1.000  H 
  C56      1.0000 0.84640  0.50000  0.34640  Biso   1.000  C 
  O45      1.0000 0.82954  0.50000  0.40471  Biso   1.000  O 
  O46      1.0000 0.90471  0.50000  0.32954  Biso   1.000  O 
  C57      1.0000 0.79500  0.50000  0.29500  Biso   1.000  C 
  C58      1.0000 0.81563  0.50000  0.23249  Biso   1.000  C 
  N6       1.0000 0.88314  0.47961  0.21487  Biso   1.000  N 
  H56      1.0000 0.77872  0.50000  0.13051  Biso   1.000  H 
  C59      1.0000 0.76752  0.50000  0.18442  Biso   1.000  C 
  C60      1.0000 0.70501  0.50000  0.20500  Biso   1.000  C 
  C61      1.0000 0.68442  0.50000  0.26751  Biso   1.000  C 
  C62      1.0000 0.73249  0.50000  0.31563  Biso   1.000  C 
  H57      1.0000 0.72128  0.50000  0.36954  Biso   1.000  H 
  H58      1.0000 0.63051  0.50000  0.27872  Biso   1.000  H 
  O47      1.0000 0.59530  0.50000  0.17046  Biso   1.000  O 
  C63      1.0000 0.65361  0.50000  0.15360  Biso   1.000  C 
  O48      1.0000 0.67047  0.50000  0.09529  Biso   1.000  O 
  H59      1.0000 0.90305  0.51491  0.18689  Biso   1.000  H 
  C64      1.0000 0.87962  0.41766  0.18042  Biso   1.000  C 
  H60      1.0000 0.83112  0.40162  0.16282  Biso   1.000  H 
  H61      1.0000 0.89760  0.38208  0.21801  Biso   1.000  H 
  C65      1.0000 0.92298  0.41820  0.11995  Biso   1.000  C 
  H62      1.0000 0.91591  0.46141  0.08752  Biso   1.000  H 
  C66      1.0000 0.91419  0.36047  0.07781  Biso   1.000  C 
  H63      1.0000 0.97311  0.41685  0.13472  Biso   1.000  H 
  H64      1.0000 0.90321  0.31818  0.10747  Biso   1.000  H 
  H65      1.0000 0.95617  0.35133  0.04711  Biso   1.000  H 
  H66      1.0000 0.87565  0.37383  0.04542  Biso   1.000  H 
  C67      1.0000 0.34640  0.00000  0.34640  Biso   1.000  C 
  O49      1.0000 0.32954  0.00000  0.40471  Biso   1.000  O 
  O50      1.0000 0.40471  0.00000  0.32954  Biso   1.000  O 
  C68      1.0000 0.29500  0.00000  0.29500  Biso   1.000  C 
  C69      1.0000 0.31563  0.00000  0.23249  Biso   1.000  C 
  N7       1.0000 0.38537  0.00142  0.21390  Biso   1.000  N 
  H67      1.0000 0.27872  0.00000  0.13051  Biso   1.000  H 
  C70      1.0000 0.26751  0.00000  0.18442  Biso   1.000  C 
  C71      1.0000 0.20500  0.00000  0.20500  Biso   1.000  C 
  C72      1.0000 0.18442  0.00000  0.26751  Biso   1.000  C 
  C73      1.0000 0.23249  0.00000  0.31563  Biso   1.000  C 
  H68      1.0000 0.22128  0.00000  0.36954  Biso   1.000  H 
  H69      1.0000 0.13051  0.00000  0.27872  Biso   1.000  H 
  O51      1.0000 0.09530  0.00000  0.17046  Biso   1.000  O 
  C74      1.0000 0.15360  0.00000  0.15360  Biso   1.000  C 
  O52      1.0000 0.17046  0.00000  0.09529  Biso   1.000  O 
  H70      1.0000 0.39434  0.04721  0.19561  Biso   1.000  H 
  C75      1.0000 0.40535  0.95397  0.16512  Biso   1.000  C 
  H71      1.0000 0.37499  0.90945  0.16431  Biso   1.000  H 
  H72      1.0000 0.45467  0.94118  0.17758  Biso   1.000  H 
  C76      1.0000 0.41098  0.98305  0.09758  Biso   1.000  C 
  H73      1.0000 0.36445  0.00174  0.08060  Biso   1.000  H 
  C77      1.0000 0.43194  0.93443  0.04760  Biso   1.000  C 
  H74      1.0000 0.44602  0.02497  0.09949  Biso   1.000  H 
  H75      1.0000 0.41285  0.88449  0.05882  Biso   1.000  H 
  H76      1.0000 0.48348  0.93545  0.04591  Biso   1.000  H 
  H77      1.0000 0.41524  0.95028  0.00025  Biso   1.000  H 
  C78      1.0000 0.34640  0.50000  0.84640  Biso   1.000  C 
  O53      1.0000 0.32954  0.50000  0.90471  Biso   1.000  O 
  O54      1.0000 0.40471  0.50000  0.82954  Biso   1.000  O 
  C79      1.0000 0.29500  0.50000  0.79500  Biso   1.000  C 
  C80      1.0000 0.31563  0.50000  0.73249  Biso   1.000  C 
  N8       1.0000 0.38635  0.49153  0.71358  Biso   1.000  N 
  H78      1.0000 0.27872  0.50000  0.63051  Biso   1.000  H 
  C81      1.0000 0.26751  0.50000  0.68442  Biso   1.000  C 
  C82      1.0000 0.20500  0.50000  0.70500  Biso   1.000  C 
  C83      1.0000 0.18442  0.50000  0.76751  Biso   1.000  C 
  C84      1.0000 0.23249  0.50000  0.81563  Biso   1.000  C 
  H79      1.0000 0.22128  0.50000  0.86954  Biso   1.000  H 
  H80      1.0000 0.13051  0.50000  0.77872  Biso   1.000  H 
  O55      1.0000 0.09530  0.50000  0.67046  Biso   1.000  O 
  C85      1.0000 0.15360  0.50000  0.65360  Biso   1.000  C 
  O56      1.0000 0.17046  0.50000  0.59529  Biso   1.000  O 
  H81      1.0000 0.40368  0.53659  0.70231  Biso   1.000  H 
  C86      1.0000 0.39486  0.44653  0.65950  Biso   1.000  C 
  H82      1.0000 0.35035  0.41812  0.64715  Biso   1.000  H 
  H83      1.0000 0.43146  0.41187  0.67153  Biso   1.000  H 
  C87      1.0000 0.42144  0.48097  0.59983  Biso   1.000  C 
  H84      1.0000 0.38654  0.51836  0.58381  Biso   1.000  H 
  C88      1.0000 0.43506  0.43427  0.54351  Biso   1.000  C 
  H85      1.0000 0.46642  0.50601  0.61576  Biso   1.000  H 
  H86      1.0000 0.38806  0.41452  0.52640  Biso   1.000  H 
  H87      1.0000 0.46468  0.39392  0.55983  Biso   1.000  H 
  H88      1.0000 0.46011  0.46150  0.50520  Biso   1.000  H 
  C89      1.0000 0.84640  0.15360  0.00000  Biso   1.000  C 
  O57      1.0000 0.90471  0.17046  0.00000  Biso   1.000  O 
  O58      1.0000 0.82954  0.09529  0.00000  Biso   1.000  O 
  C90      1.0000 0.79500  0.20500  0.00000  Biso   1.000  C 
  C91      1.0000 0.73249  0.18437  0.00000  Biso   1.000  C 
  N9       1.0000 0.71236  0.11548  0.99548  Biso   1.000  N 
  H89      1.0000 0.63051  0.22128  0.00000  Biso   1.000  H 
  C92      1.0000 0.68442  0.23249  0.00000  Biso   1.000  C 
  C93      1.0000 0.70500  0.29500  0.00000  Biso   1.000  C 
  C94      1.0000 0.76751  0.31558  0.00000  Biso   1.000  C 
  C95      1.0000 0.81563  0.26751  0.00000  Biso   1.000  C 
  H90      1.0000 0.86954  0.27872  0.00000  Biso   1.000  H 
  H91      1.0000 0.77872  0.36949  0.00000  Biso   1.000  H 
  O59      1.0000 0.67046  0.40470  0.00000  Biso   1.000  O 
  C96      1.0000 0.65360  0.34640  0.00000  Biso   1.000  C 
  O60      1.0000 0.59529  0.32954  0.00000  Biso   1.000  O 
  H92      1.0000 0.71231  0.10420  0.94833  Biso   1.000  H 
  C97      1.0000 0.65059  0.09779  0.03144  Biso   1.000  C 
  H93      1.0000 0.64336  0.12628  0.07664  Biso   1.000  H 
  H94      1.0000 0.65782  0.04857  0.04594  Biso   1.000  H 
  C98      1.0000 0.58806  0.09558  0.98684  Biso   1.000  C 
  H95      1.0000 0.56206  0.05426  0.00194  Biso   1.000  H 
  C99      1.0000 0.60235  0.08337  0.91444  Biso   1.000  C 
  H96      1.0000 0.55645  0.13750  0.99266  Biso   1.000  H 
  H97      1.0000 0.63058  0.12258  0.89054  Biso   1.000  H 
  H98      1.0000 0.55936  0.07553  0.88291  Biso   1.000  H 
  H99      1.0000 0.63230  0.03813  0.91304  Biso   1.000  H 
  C100     1.0000 0.84640  0.65360  0.50000  Biso   1.000  C 
  O61      1.0000 0.90471  0.67046  0.50000  Biso   1.000  O 
  O62      1.0000 0.82954  0.59529  0.50000  Biso   1.000  O 
  C101     1.0000 0.79500  0.70500  0.50000  Biso   1.000  C 
  C102     1.0000 0.73249  0.68437  0.50000  Biso   1.000  C 
  N10      1.0000 0.71676  0.61265  0.49084  Biso   1.000  N 
  H100     1.0000 0.63051  0.72128  0.50000  Biso   1.000  H 
  C103     1.0000 0.68442  0.73248  0.50000  Biso   1.000  C 
  C104     1.0000 0.70500  0.79499  0.50000  Biso   1.000  C 
  C105     1.0000 0.76751  0.81558  0.50000  Biso   1.000  C 
  C106     1.0000 0.81563  0.76751  0.50000  Biso   1.000  C 
  H101     1.0000 0.86954  0.77872  0.50000  Biso   1.000  H 
  H102     1.0000 0.77872  0.86949  0.50000  Biso   1.000  H 
  O63      1.0000 0.67046  0.90470  0.50000  Biso   1.000  O 
  C107     1.0000 0.65360  0.84639  0.50000  Biso   1.000  C 
  O64      1.0000 0.59529  0.82953  0.50000  Biso   1.000  O 
  H103     1.0000 0.72635  0.59495  0.44549  Biso   1.000  H 
  C108     1.0000 0.65509  0.59319  0.51901  Biso   1.000  C 
  H104     1.0000 0.64563  0.61893  0.56755  Biso   1.000  H 
  H105     1.0000 0.65835  0.54216  0.53156  Biso   1.000  H 
  C109     1.0000 0.59496  0.59950  0.47574  Biso   1.000  C 
  H106     1.0000 0.56209  0.55831  0.48222  Biso   1.000  H 
  C110     1.0000 0.60949  0.60508  0.40398  Biso   1.000  C 
  H107     1.0000 0.56838  0.64240  0.48947  Biso   1.000  H 
  H108     1.0000 0.63979  0.64900  0.39528  Biso   1.000  H 
  H109     1.0000 0.56902  0.60600  0.37039  Biso   1.000  H 
  H110     1.0000 0.63903  0.56255  0.39190  Biso   1.000  H 
  C111     1.0000 0.34640  0.15360  0.50000  Biso   1.000  C 
  O65      1.0000 0.40471  0.17046  0.50000  Biso   1.000  O 
  O66      1.0000 0.32954  0.09529  0.50000  Biso   1.000  O 
  C112     1.0000 0.29500  0.20500  0.50000  Biso   1.000  C 
  C113     1.0000 0.23249  0.18437  0.50000  Biso   1.000  C 
  N11      1.0000 0.21457  0.11875  0.47078  Biso   1.000  N 
  H111     1.0000 0.13051  0.22128  0.50000  Biso   1.000  H 
  C114     1.0000 0.18442  0.23249  0.50000  Biso   1.000  C 
  C115     1.0000 0.20500  0.29500  0.50000  Biso   1.000  C 
  C116     1.0000 0.26751  0.31558  0.50000  Biso   1.000  C 
  C117     1.0000 0.31563  0.26751  0.50000  Biso   1.000  C 
  H112     1.0000 0.36954  0.27872  0.50000  Biso   1.000  H 
  H113     1.0000 0.27872  0.36949  0.50000  Biso   1.000  H 
  O67      1.0000 0.17046  0.40470  0.50000  Biso   1.000  O 
  C118     1.0000 0.15360  0.34640  0.50000  Biso   1.000  C 
  O68      1.0000 0.09529  0.32954  0.50000  Biso   1.000  O 
  H114     1.0000 0.24846  0.10935  0.43562  Biso   1.000  H 
  C119     1.0000 0.15067  0.11172  0.43719  Biso   1.000  C 
  H115     1.0000 0.10691  0.12431  0.46839  Biso   1.000  H 
  H116     1.0000 0.14321  0.06027  0.42863  Biso   1.000  H 
  C120     1.0000 0.14192  0.13982  0.37118  Biso   1.000  C 
  H117     1.0000 0.13008  0.10070  0.33715  Biso   1.000  H 
  C121     1.0000 0.19531  0.17938  0.34167  Biso   1.000  C 
  H118     1.0000 0.10107  0.17325  0.37152  Biso   1.000  H 
  H119     1.0000 0.19957  0.22253  0.37052  Biso   1.000  H 
  H120     1.0000 0.17933  0.19476  0.29227  Biso   1.000  H 
  H121     1.0000 0.24251  0.15480  0.33582  Biso   1.000  H 
  C122     1.0000 0.34640  0.65360  0.00000  Biso   1.000  C 
  O69      1.0000 0.40471  0.67046  0.00000  Biso   1.000  O 
  O70      1.0000 0.32954  0.59529  0.00000  Biso   1.000  O 
  C123     1.0000 0.29500  0.70500  0.00000  Biso   1.000  C 
  C124     1.0000 0.23249  0.68437  0.00000  Biso   1.000  C 
  N12      1.0000 0.21132  0.61573  0.97845  Biso   1.000  N 
  H122     1.0000 0.13051  0.72128  0.00000  Biso   1.000  H 
  C125     1.0000 0.18442  0.73248  0.00000  Biso   1.000  C 
  C126     1.0000 0.20500  0.79499  0.00000  Biso   1.000  C 
  C127     1.0000 0.26751  0.81558  0.00000  Biso   1.000  C 
  C128     1.0000 0.31563  0.76751  0.00000  Biso   1.000  C 
  H123     1.0000 0.36954  0.77872  0.00000  Biso   1.000  H 
  H124     1.0000 0.27872  0.86949  0.00000  Biso   1.000  H 
  O71      1.0000 0.17046  0.90470  0.00000  Biso   1.000  O 
  C129     1.0000 0.15360  0.84639  0.00000  Biso   1.000  C 
  O72      1.0000 0.09529  0.82953  0.00000  Biso   1.000  O 
  H125     1.0000 0.23409  0.57153  0.98213  Biso   1.000  H 
  C130     1.0000 0.16108  0.61658  0.92713  Biso   1.000  C 
  H126     1.0000 0.11200  0.62260  0.94722  Biso   1.000  H 
  H127     1.0000 0.16188  0.56891  0.90531  Biso   1.000  H 
  C131     1.0000 0.17588  0.66452  0.87424  Biso   1.000  C 
  H128     1.0000 0.13893  0.65783  0.83618  Biso   1.000  H 
  C132     1.0000 0.24406  0.65723  0.84281  Biso   1.000  C 
  H129     1.0000 0.17257  0.71582  0.88851  Biso   1.000  H 
  H130     1.0000 0.28115  0.63304  0.87307  Biso   1.000  H 
  H131     1.0000 0.26557  0.70381  0.82337  Biso   1.000  H 
  H132     1.0000 0.23703  0.62693  0.79866  Biso   1.000  H 
  C133     1.0000 0.84640  0.84640  0.00000  Biso   1.000  C 
  O73      1.0000 0.90471  0.82954  0.00000  Biso   1.000  O 
  O74      1.0000 0.82954  0.90471  0.00000  Biso   1.000  O 
  C134     1.0000 0.79500  0.79500  0.00000  Biso   1.000  C 
  C135     1.0000 0.73249  0.81563  0.00000  Biso   1.000  C 
  N13      1.0000 0.71416  0.88460  0.98463  Biso   1.000  N 
  H133     1.0000 0.63051  0.77872  0.00000  Biso   1.000  H 
  C136     1.0000 0.68442  0.76752  0.00000  Biso   1.000  C 
  C137     1.0000 0.70500  0.70501  0.00000  Biso   1.000  C 
  C138     1.0000 0.76751  0.68442  0.00000  Biso   1.000  C 
  C139     1.0000 0.81563  0.73249  0.00000  Biso   1.000  C 
  H134     1.0000 0.86954  0.72128  0.00000  Biso   1.000  H 
  H135     1.0000 0.77872  0.63051  0.00000  Biso   1.000  H 
  O75      1.0000 0.67046  0.59530  0.00000  Biso   1.000  O 
  C140     1.0000 0.65360  0.65361  0.00000  Biso   1.000  C 
  O76      1.0000 0.59529  0.67047  0.00000  Biso   1.000  O 
  H136     1.0000 0.70158  0.91064  0.02648  Biso   1.000  H 
  C141     1.0000 0.65672  0.88649  0.94151  Biso   1.000  C 
  H137     1.0000 0.65458  0.84295  0.90977  Biso   1.000  H 
  H138     1.0000 0.66529  0.92916  0.91239  Biso   1.000  H 
  C142     1.0000 0.58876  0.89976  0.97196  Biso   1.000  C 
  H139     1.0000 0.57089  0.85802  0.99922  Biso   1.000  H 
  C143     1.0000 0.53884  0.91528  0.91764  Biso   1.000  C 
  H140     1.0000 0.59418  0.94386  0.00370  Biso   1.000  H 
  H141     1.0000 0.56168  0.93263  0.87215  Biso   1.000  H 
  H142     1.0000 0.50919  0.95426  0.93760  Biso   1.000  H 
  H143     1.0000 0.50857  0.87413  0.90616  Biso   1.000  H 
  C144     1.0000 0.84640  0.34640  0.50000  Biso   1.000  C 
  O77      1.0000 0.90471  0.32954  0.50000  Biso   1.000  O 
  O78      1.0000 0.82954  0.40471  0.50000  Biso   1.000  O 
  C145     1.0000 0.79500  0.29500  0.50000  Biso   1.000  C 
  C146     1.0000 0.73249  0.31563  0.50000  Biso   1.000  C 
  N14      1.0000 0.71182  0.38567  0.48761  Biso   1.000  N 
  H144     1.0000 0.63051  0.27872  0.50000  Biso   1.000  H 
  C147     1.0000 0.68442  0.26751  0.50000  Biso   1.000  C 
  C148     1.0000 0.70500  0.20500  0.50000  Biso   1.000  C 
  C149     1.0000 0.76751  0.18442  0.50000  Biso   1.000  C 
  C150     1.0000 0.81563  0.23249  0.50000  Biso   1.000  C 
  H145     1.0000 0.86954  0.22128  0.50000  Biso   1.000  H 
  H146     1.0000 0.77872  0.13051  0.50000  Biso   1.000  H 
  O79      1.0000 0.67046  0.09530  0.50000  Biso   1.000  O 
  C151     1.0000 0.65360  0.15360  0.50000  Biso   1.000  C 
  O80      1.0000 0.59529  0.17046  0.50000  Biso   1.000  O 
  H147     1.0000 0.69819  0.40661  0.53096  Biso   1.000  H 
  C152     1.0000 0.66115  0.39083  0.43776  Biso   1.000  C 
  H148     1.0000 0.65856  0.34445  0.40816  Biso   1.000  H 
  H149     1.0000 0.67659  0.42738  0.40634  Biso   1.000  H 
  C153     1.0000 0.59415  0.41120  0.46462  Biso   1.000  C 
  H150     1.0000 0.57573  0.37187  0.49633  Biso   1.000  H 
  C154     1.0000 0.54876  0.42629  0.40589  Biso   1.000  C 
  H151     1.0000 0.59958  0.45341  0.49605  Biso   1.000  H 
  H152     1.0000 0.56805  0.40539  0.35940  Biso   1.000  H 
  H153     1.0000 0.54447  0.48088  0.40365  Biso   1.000  H 
  H154     1.0000 0.50057  0.40435  0.41590  Biso   1.000  H 
  C155     1.0000 0.34640  0.84640  0.50000  Biso   1.000  C 
  O81      1.0000 0.40471  0.82954  0.50000  Biso   1.000  O 
  O82      1.0000 0.32954  0.90471  0.50000  Biso   1.000  O 
  C156     1.0000 0.29500  0.79500  0.50000  Biso   1.000  C 
  C157     1.0000 0.23249  0.81563  0.50000  Biso   1.000  C 
  N15      1.0000 0.21631  0.88404  0.51744  Biso   1.000  N 
  H155     1.0000 0.13051  0.77872  0.50000  Biso   1.000  H 
  C158     1.0000 0.18442  0.76752  0.50000  Biso   1.000  C 
  C159     1.0000 0.20500  0.70501  0.50000  Biso   1.000  C 
  C160     1.0000 0.26751  0.68442  0.50000  Biso   1.000  C 
  C161     1.0000 0.31563  0.73249  0.50000  Biso   1.000  C 
  H156     1.0000 0.36954  0.72128  0.50000  Biso   1.000  H 
  H157     1.0000 0.27872  0.63051  0.50000  Biso   1.000  H 
  O83      1.0000 0.17046  0.59530  0.50000  Biso   1.000  O 
  C162     1.0000 0.15360  0.65361  0.50000  Biso   1.000  C 
  O84      1.0000 0.09529  0.67047  0.50000  Biso   1.000  O 
  H158     1.0000 0.20223  0.88173  0.56517  Biso   1.000  H 
  C163     1.0000 0.16903  0.91575  0.47780  Biso   1.000  C 
  H159     1.0000 0.17308  0.89818  0.42784  Biso   1.000  H 
  H160     1.0000 0.18110  0.96708  0.47911  Biso   1.000  H 
  C164     1.0000 0.10096  0.91319  0.50552  Biso   1.000  C 
  H161     1.0000 0.09063  0.86626  0.52825  Biso   1.000  H 
  C165     1.0000 0.05233  0.92398  0.45035  Biso   1.000  C 
  H162     1.0000 0.09434  0.95074  0.54249  Biso   1.000  H 
  H163     1.0000 0.06047  0.88688  0.41255  Biso   1.000  H 
  H164     1.0000 0.05889  0.97152  0.42754  Biso   1.000  H 
  H165     1.0000 0.00090  0.92178  0.46520  Biso   1.000  H 
  C166     1.0000 0.34640  0.34640  0.00000  Biso   1.000  C 
  O85      1.0000 0.40471  0.32954  0.00000  Biso   1.000  O 
  O86      1.0000 0.32954  0.40471  0.00000  Biso   1.000  O 
  C167     1.0000 0.29500  0.29500  0.00000  Biso   1.000  C 
  C168     1.0000 0.23249  0.31563  0.00000  Biso   1.000  C 
  N16      1.0000 0.21302  0.38286  0.98203  Biso   1.000  N 
  H166     1.0000 0.13051  0.27872  0.00000  Biso   1.000  H 
  C169     1.0000 0.18442  0.26751  0.00000  Biso   1.000  C 
  C170     1.0000 0.20500  0.20500  0.00000  Biso   1.000  C 
  C171     1.0000 0.26751  0.18442  0.00000  Biso   1.000  C 
  C172     1.0000 0.31563  0.23249  0.00000  Biso   1.000  C 
  H167     1.0000 0.36954  0.22128  0.00000  Biso   1.000  H 
  H168     1.0000 0.27872  0.13051  0.00000  Biso   1.000  H 
  O87      1.0000 0.17046  0.09530  0.00000  Biso   1.000  O 
  C173     1.0000 0.15360  0.15360  0.00000  Biso   1.000  C 
  O88      1.0000 0.09529  0.17046  0.00000  Biso   1.000  O 
  H169     1.0000 0.18996  0.40293  0.02199  Biso   1.000  H 
  C174     1.0000 0.17108  0.38573  0.92388  Biso   1.000  C 
  H170     1.0000 0.15428  0.33731  0.90989  Biso   1.000  H 
  H171     1.0000 0.20012  0.40043  0.87960  Biso   1.000  H 
  C175     1.0000 0.10854  0.42558  0.93400  Biso   1.000  C 
  H172     1.0000 0.08495  0.40926  0.97904  Biso   1.000  H 
  C176     1.0000 0.05603  0.41787  0.88168  Biso   1.000  C 
  H173     1.0000 0.12193  0.47692  0.93775  Biso   1.000  H 
  H174     1.0000 0.06419  0.37064  0.85812  Biso   1.000  H 
  H175     1.0000 0.05755  0.45705  0.84559  Biso   1.000  H 
  H176     1.0000 0.00592  0.41462  0.90485  Biso   1.000  H 
  C177     1.0000 0.00000  0.84640  0.15360  Biso   1.000  C 
  O89      1.0000 0.00000  0.90471  0.17046  Biso   1.000  O 
  O90      1.0000 0.00000  0.82954  0.09529  Biso   1.000  O 
  C178     1.0000 0.00000  0.79500  0.20500  Biso   1.000  C 
  C179     1.0000 0.00000  0.73249  0.18437  Biso   1.000  C 
  N17      1.0000 0.98339  0.71651  0.11561  Biso   1.000  N 
  H177     1.0000 0.00000  0.63051  0.22128  Biso   1.000  H 
  C180     1.0000 0.00000  0.68442  0.23249  Biso   1.000  C 
  C181     1.0000 0.00000  0.70500  0.29500  Biso   1.000  C 
  C182     1.0000 0.00000  0.76751  0.31558  Biso   1.000  C 
  C183     1.0000 0.00000  0.81563  0.26751  Biso   1.000  C 
  H178     1.0000 0.00000  0.86954  0.27872  Biso   1.000  H 
  H179     1.0000 0.00000  0.77872  0.36949  Biso   1.000  H 
  O91      1.0000 0.00000  0.67046  0.40470  Biso   1.000  O 
  C184     1.0000 0.00000  0.65360  0.34640  Biso   1.000  C 
  O92      1.0000 0.00000  0.59529  0.32954  Biso   1.000  O 
  H180     1.0000 0.93478  0.72449  0.10464  Biso   1.000  H 
  C185     1.0000 0.01196  0.65752  0.09170  Biso   1.000  C 
  H181     1.0000 0.05814  0.64813  0.11617  Biso   1.000  H 
  H182     1.0000 0.02024  0.66365  0.03850  Biso   1.000  H 
  C186     1.0000 0.96818  0.59722  0.09831  Biso   1.000  C 
  H183     1.0000 0.99185  0.56123  0.06715  Biso   1.000  H 
  C187     1.0000 0.90033  0.60910  0.07658  Biso   1.000  C 
  H184     1.0000 0.96867  0.57773  0.14728  Biso   1.000  H 
  H185     1.0000 0.87918  0.64248  0.11058  Biso   1.000  H 
  H186     1.0000 0.87331  0.56147  0.07822  Biso   1.000  H 
  H187     1.0000 0.90119  0.62861  0.02754  Biso   1.000  H 
  C188     1.0000 0.00000  0.34640  0.65360  Biso   1.000  C 
  O93      1.0000 0.00000  0.40471  0.67046  Biso   1.000  O 
  O94      1.0000 0.00000  0.32954  0.59529  Biso   1.000  O 
  C189     1.0000 0.00000  0.29500  0.70500  Biso   1.000  C 
  C190     1.0000 0.00000  0.23249  0.68437  Biso   1.000  C 
  N18      1.0000 0.97617  0.21637  0.61606  Biso   1.000  N 
  H188     1.0000 0.00000  0.13051  0.72128  Biso   1.000  H 
  C191     1.0000 0.00000  0.18442  0.73248  Biso   1.000  C 
  C192     1.0000 0.00000  0.20500  0.79499  Biso   1.000  C 
  C193     1.0000 0.00000  0.26751  0.81558  Biso   1.000  C 
  C194     1.0000 0.00000  0.31563  0.76751  Biso   1.000  C 
  H189     1.0000 0.00000  0.36954  0.77872  Biso   1.000  H 
  H190     1.0000 0.00000  0.27872  0.86949  Biso   1.000  H 
  O95      1.0000 0.00000  0.17046  0.90470  Biso   1.000  O 
  C195     1.0000 0.00000  0.15360  0.84639  Biso   1.000  C 
  O96      1.0000 0.00000  0.09529  0.82953  Biso   1.000  O 
  H191     1.0000 0.92545  0.21425  0.61693  Biso   1.000  H 
  C196     1.0000 0.00586  0.16048  0.58419  Biso   1.000  C 
  H192     1.0000 0.05676  0.15489  0.60230  Biso   1.000  H 
  H193     1.0000 0.00703  0.16758  0.53208  Biso   1.000  H 
  C197     1.0000 0.96653  0.09666  0.59354  Biso   1.000  C 
  H194     1.0000 0.98317  0.06035  0.56041  Biso   1.000  H 
  C198     1.0000 0.89319  0.09882  0.58332  Biso   1.000  C 
  H195     1.0000 0.97324  0.07604  0.64092  Biso   1.000  H 
  H196     1.0000 0.87190  0.12993  0.62491  Biso   1.000  H 
  H197     1.0000 0.86987  0.05080  0.58436  Biso   1.000  H 
  H198     1.0000 0.88327  0.12206  0.53579  Biso   1.000  H 
  C199     1.0000 0.50000  0.84640  0.65360  Biso   1.000  C 
  O97      1.0000 0.50000  0.90471  0.67046  Biso   1.000  O 
  O98      1.0000 0.50000  0.82954  0.59529  Biso   1.000  O 
  C200     1.0000 0.50000  0.79500  0.70500  Biso   1.000  C 
  C201     1.0000 0.50000  0.73249  0.68437  Biso   1.000  C 
  N19      1.0000 0.46948  0.71497  0.61806  Biso   1.000  N 
  H199     1.0000 0.50000  0.63051  0.72128  Biso   1.000  H 
  C202     1.0000 0.50000  0.68442  0.73248  Biso   1.000  C 
  C203     1.0000 0.50000  0.70500  0.79499  Biso   1.000  C 
  C204     1.0000 0.50000  0.76751  0.81558  Biso   1.000  C 
  C205     1.0000 0.50000  0.81563  0.76751  Biso   1.000  C 
  H200     1.0000 0.50000  0.86954  0.77872  Biso   1.000  H 
  H201     1.0000 0.50000  0.77872  0.86949  Biso   1.000  H 
  O99      1.0000 0.50000  0.67046  0.90470  Biso   1.000  O 
  C206     1.0000 0.50000  0.65360  0.84639  Biso   1.000  C 
  O100     1.0000 0.50000  0.59529  0.82953  Biso   1.000  O 
  H202     1.0000 0.43573  0.75049  0.60619  Biso   1.000  H 
  C207     1.0000 0.42549  0.66127  0.62074  Biso   1.000  C 
  H203     1.0000 0.45554  0.61697  0.63004  Biso   1.000  H 
  H204     1.0000 0.40388  0.65350  0.57185  Biso   1.000  H 
  C208     1.0000 0.36939  0.66914  0.67397  Biso   1.000  C 
  H205     1.0000 0.33031  0.63342  0.65925  Biso   1.000  H 
  C209     1.0000 0.33467  0.73647  0.68286  Biso   1.000  C 
  H206     1.0000 0.38402  0.65563  0.72226  Biso   1.000  H 
  H207     1.0000 0.36827  0.77355  0.69976  Biso   1.000  H 
  H208     1.0000 0.29701  0.72812  0.72042  Biso   1.000  H 
  H209     1.0000 0.31048  0.75347  0.63754  Biso   1.000  H 
  C210     1.0000 0.50000  0.34640  0.15360  Biso   1.000  C 
  O101     1.0000 0.50000  0.40471  0.17046  Biso   1.000  O 
  O102     1.0000 0.50000  0.32954  0.09529  Biso   1.000  O 
  C211     1.0000 0.50000  0.29500  0.20500  Biso   1.000  C 
  C212     1.0000 0.50000  0.23249  0.18437  Biso   1.000  C 
  N20      1.0000 0.47031  0.21186  0.11984  Biso   1.000  N 
  H210     1.0000 0.50000  0.13051  0.22128  Biso   1.000  H 
  C213     1.0000 0.50000  0.18442  0.23249  Biso   1.000  C 
  C214     1.0000 0.50000  0.20500  0.29500  Biso   1.000  C 
  C215     1.0000 0.50000  0.26751  0.31558  Biso   1.000  C 
  C216     1.0000 0.50000  0.31563  0.26751  Biso   1.000  C 
  H211     1.0000 0.50000  0.36954  0.27872  Biso   1.000  H 
  H212     1.0000 0.50000  0.27872  0.36949  Biso   1.000  H 
  O103     1.0000 0.50000  0.17046  0.40470  Biso   1.000  O 
  C217     1.0000 0.50000  0.15360  0.34640  Biso   1.000  C 
  O104     1.0000 0.50000  0.09529  0.32954  Biso   1.000  O 
  H213     1.0000 0.46712  0.23731  0.07642  Biso   1.000  H 
  C218     1.0000 0.40948  0.17629  0.13001  Biso   1.000  C 
  H214     1.0000 0.42400  0.12849  0.14892  Biso   1.000  H 
  H215     1.0000 0.38569  0.16582  0.08458  Biso   1.000  H 
  C219     1.0000 0.35695  0.20343  0.17315  Biso   1.000  C 
  H216     1.0000 0.32082  0.16349  0.17943  Biso   1.000  H 
  C220     1.0000 0.32208  0.26234  0.14576  Biso   1.000  C 
  H217     1.0000 0.37477  0.21446  0.22216  Biso   1.000  H 
  H218     1.0000 0.35678  0.28928  0.11704  Biso   1.000  H 
  H219     1.0000 0.30282  0.29499  0.18400  Biso   1.000  H 
  H220     1.0000 0.28121  0.24817  0.11698  Biso   1.000  H 
  C221     1.0000 0.00000  0.84640  0.84640  Biso   1.000  C 
  O105     1.0000 0.00000  0.90471  0.82954  Biso   1.000  O 
  O106     1.0000 0.00000  0.82954  0.90471  Biso   1.000  O 
  C222     1.0000 0.00000  0.79500  0.79500  Biso   1.000  C 
  C223     1.0000 0.00000  0.73249  0.81563  Biso   1.000  C 
  N21      1.0000 0.98353  0.71046  0.88419  Biso   1.000  N 
  H221     1.0000 0.00000  0.63051  0.77872  Biso   1.000  H 
  C224     1.0000 0.00000  0.68442  0.76752  Biso   1.000  C 
  C225     1.0000 0.00000  0.70500  0.70501  Biso   1.000  C 
  C226     1.0000 0.00000  0.76751  0.68442  Biso   1.000  C 
  C227     1.0000 0.00000  0.81563  0.73249  Biso   1.000  C 
  H222     1.0000 0.00000  0.86954  0.72128  Biso   1.000  H 
  H223     1.0000 0.00000  0.77872  0.63051  Biso   1.000  H 
  O107     1.0000 0.00000  0.67046  0.59530  Biso   1.000  O 
  C228     1.0000 0.00000  0.65360  0.65361  Biso   1.000  C 
  O108     1.0000 0.00000  0.59529  0.67047  Biso   1.000  O 
  H224     1.0000 0.02537  0.70357  0.91100  Biso   1.000  H 
  C229     1.0000 0.93789  0.65506  0.88840  Biso   1.000  C 
  H225     1.0000 0.91036  0.64642  0.84142  Biso   1.000  H 
  H226     1.0000 0.90216  0.66937  0.92419  Biso   1.000  H 
  C230     1.0000 0.97525  0.59472  0.90932  Biso   1.000  C 
  H227     1.0000 0.01625  0.58323  0.87423  Biso   1.000  H 
  C231     1.0000 0.92824  0.53766  0.91724  Biso   1.000  C 
  H228     1.0000 0.99725  0.60383  0.95656  Biso   1.000  H 
  H229     1.0000 0.92130  0.51231  0.87164  Biso   1.000  H 
  H230     1.0000 0.88073  0.55246  0.93575  Biso   1.000  H 
  H231     1.0000 0.94997  0.50123  0.95051  Biso   1.000  H 
  C232     1.0000 0.00000  0.34640  0.34640  Biso   1.000  C 
  O109     1.0000 0.00000  0.40471  0.32954  Biso   1.000  O 
  O110     1.0000 0.00000  0.32954  0.40471  Biso   1.000  O 
  C233     1.0000 0.00000  0.29500  0.29500  Biso   1.000  C 
  C234     1.0000 0.00000  0.23249  0.31563  Biso   1.000  C 
  N22      1.0000 0.98593  0.21266  0.38652  Biso   1.000  N 
  H232     1.0000 0.00000  0.13051  0.27872  Biso   1.000  H 
  C235     1.0000 0.00000  0.18442  0.26751  Biso   1.000  C 
  C236     1.0000 0.00000  0.20500  0.20500  Biso   1.000  C 
  C237     1.0000 0.00000  0.26751  0.18442  Biso   1.000  C 
  C238     1.0000 0.00000  0.31563  0.23249  Biso   1.000  C 
  H233     1.0000 0.00000  0.36954  0.22128  Biso   1.000  H 
  H234     1.0000 0.00000  0.27872  0.13051  Biso   1.000  H 
  O111     1.0000 0.00000  0.17046  0.09530  Biso   1.000  O 
  C239     1.0000 0.00000  0.15360  0.15360  Biso   1.000  C 
  O112     1.0000 0.00000  0.09529  0.17046  Biso   1.000  O 
  H235     1.0000 0.02335  0.20607  0.41946  Biso   1.000  H 
  C240     1.0000 0.93686  0.16127  0.38774  Biso   1.000  C 
  H236     1.0000 0.90915  0.15780  0.34183  Biso   1.000  H 
  H237     1.0000 0.90123  0.17097  0.42470  Biso   1.000  H 
  C241     1.0000 0.96490  0.09257  0.40447  Biso   1.000  C 
  H238     1.0000 0.99946  0.07649  0.36774  Biso   1.000  H 
  C242     1.0000 0.91427  0.03900  0.41796  Biso   1.000  C 
  H239     1.0000 0.99032  0.09593  0.45238  Biso   1.000  H 
  H240     1.0000 0.93779  0.99557  0.39717  Biso   1.000  H 
  H241     1.0000 0.87067  0.04636  0.38987  Biso   1.000  H 
  H242     1.0000 0.90227  0.02853  0.46734  Biso   1.000  H 
  C243     1.0000 0.50000  0.84640  0.34640  Biso   1.000  C 
  O113     1.0000 0.50000  0.90471  0.32954  Biso   1.000  O 
  O114     1.0000 0.50000  0.82954  0.40471  Biso   1.000  O 
  C244     1.0000 0.50000  0.79500  0.29500  Biso   1.000  C 
  C245     1.0000 0.50000  0.73249  0.31563  Biso   1.000  C 
  N23      1.0000 0.48112  0.71379  0.38279  Biso   1.000  N 
  H243     1.0000 0.50000  0.63051  0.27872  Biso   1.000  H 
  C246     1.0000 0.50000  0.68442  0.26751  Biso   1.000  C 
  C247     1.0000 0.50000  0.70500  0.20500  Biso   1.000  C 
  C248     1.0000 0.50000  0.76751  0.18442  Biso   1.000  C 
  C249     1.0000 0.50000  0.81563  0.23249  Biso   1.000  C 
  H244     1.0000 0.50000  0.86954  0.22128  Biso   1.000  H 
  H245     1.0000 0.50000  0.77872  0.13051  Biso   1.000  H 
  O115     1.0000 0.50000  0.67046  0.09530  Biso   1.000  O 
  C250     1.0000 0.50000  0.65360  0.15360  Biso   1.000  C 
  O116     1.0000 0.50000  0.59529  0.17046  Biso   1.000  O 
  H246     1.0000 0.52172  0.69305  0.40138  Biso   1.000  H 
  C251     1.0000 0.42664  0.66591  0.38379  Biso   1.000  C 
  H247     1.0000 0.40358  0.65034  0.33730  Biso   1.000  H 
  H248     1.0000 0.38892  0.69232  0.40649  Biso   1.000  H 
  C252     1.0000 0.44191  0.60427  0.42405  Biso   1.000  C 
  H249     1.0000 0.48079  0.57831  0.40119  Biso   1.000  H 
  C253     1.0000 0.38381  0.55745  0.42657  Biso   1.000  C 
  H250     1.0000 0.45506  0.61872  0.47414  Biso   1.000  H 
  H251     1.0000 0.37929  0.53267  0.47303  Biso   1.000  H 
  H252     1.0000 0.38793  0.52169  0.38656  Biso   1.000  H 
  H253     1.0000 0.33781  0.58334  0.41926  Biso   1.000  H 
  C254     1.0000 0.50000  0.34640  0.84640  Biso   1.000  C 
  O117     1.0000 0.50000  0.40471  0.82954  Biso   1.000  O 
  O118     1.0000 0.50000  0.32954  0.90471  Biso   1.000  O 
  C255     1.0000 0.50000  0.29500  0.79500  Biso   1.000  C 
  C256     1.0000 0.50000  0.23249  0.81563  Biso   1.000  C 
  N24      1.0000 0.48881  0.21607  0.88528  Biso   1.000  N 
  H254     1.0000 0.50000  0.13051  0.77872  Biso   1.000  H 
  C257     1.0000 0.50000  0.18442  0.76752  Biso   1.000  C 
  C258     1.0000 0.50000  0.20500  0.70501  Biso   1.000  C 
  C259     1.0000 0.50000  0.26751  0.68442  Biso   1.000  C 
  C260     1.0000 0.50000  0.31563  0.73249  Biso   1.000  C 
  H255     1.0000 0.50000  0.36954  0.72128  Biso   1.000  H 
  H256     1.0000 0.50000  0.27872  0.63051  Biso   1.000  H 
  O119     1.0000 0.50000  0.17046  0.59530  Biso   1.000  O 
  C261     1.0000 0.50000  0.15360  0.65361  Biso   1.000  C 
  O120     1.0000 0.50000  0.09529  0.67047  Biso   1.000  O 
  H257     1.0000 0.52839  0.18792  0.89731  Biso   1.000  H 
  C262     1.0000 0.42800  0.18011  0.88640  Biso   1.000  C 
  H258     1.0000 0.41750  0.15674  0.83917  Biso   1.000  H 
  H259     1.0000 0.38968  0.21660  0.89224  Biso   1.000  H 
  C263     1.0000 0.42573  0.12461  0.93361  Biso   1.000  C 
  H260     1.0000 0.46931  0.09614  0.93179  Biso   1.000  H 
  C264     1.0000 0.36910  0.07945  0.91932  Biso   1.000  C 
  H261     1.0000 0.41940  0.14188  0.98174  Biso   1.000  H 
  H262     1.0000 0.32896  0.10994  0.90264  Biso   1.000  H 
  H263     1.0000 0.35557  0.05500  0.96319  Biso   1.000  H 
  H264     1.0000 0.38311  0.04233  0.88466  Biso   1.000  H 
