data_image0
_cell_length_a       20.7004
_cell_length_b       20.7004
_cell_length_c       20.7004
_cell_angle_alpha    90
_cell_angle_beta     90
_cell_angle_gamma    90

_symmetry_space_group_name_H-M    "P 1"
_symmetry_int_tables_number       1

loop_
  _symmetry_equiv_pos_as_xyz
  'x, y, z'

loop_
  _atom_site_label
  _atom_site_occupancy
  _atom_site_fract_x
  _atom_site_fract_y
  _atom_site_fract_z
  _atom_site_thermal_displace_type
  _atom_site_B_iso_or_equiv
  _atom_site_type_symbol
  Zr1      1.0000 0.11989  0.00000  0.00000  Biso   1.000  Zr
  Zr2      1.0000 0.11989  0.50000  0.50000  Biso   1.000  Zr
  Zr3      1.0000 0.61989  0.00000  0.50000  Biso   1.000  Zr
  Zr4      1.0000 0.61989  0.50000  0.00000  Biso   1.000  Zr
  Zr5      1.0000 0.88011  0.00000  0.00000  Biso   1.000  Zr
  Zr6      1.0000 0.88011  0.50000  0.50000  Biso   1.000  Zr
  Zr7      1.0000 0.38011  0.00000  0.50000  Biso   1.000  Zr
  Zr8      1.0000 0.38011  0.50000  0.00000  Biso   1.000  Zr
  Zr9      1.0000 0.00000  0.11989  0.00000  Biso   1.000  Zr
  Zr10     1.0000 0.00000  0.61989  0.50000  Biso   1.000  Zr
  Zr11     1.0000 0.50000  0.11989  0.50000  Biso   1.000  Zr
  Zr12     1.0000 0.50000  0.61989  0.00000  Biso   1.000  Zr
  Zr13     1.0000 0.00000  0.88011  0.00000  Biso   1.000  Zr
  Zr14     1.0000 0.00000  0.38011  0.50000  Biso   1.000  Zr
  Zr15     1.0000 0.50000  0.88011  0.50000  Biso   1.000  Zr
  Zr16     1.0000 0.50000  0.38011  0.00000  Biso   1.000  Zr
  Zr17     1.0000 0.00000  0.00000  0.11989  Biso   1.000  Zr
  Zr18     1.0000 0.00000  0.50000  0.61989  Biso   1.000  Zr
  Zr19     1.0000 0.50000  0.00000  0.61989  Biso   1.000  Zr
  Zr20     1.0000 0.50000  0.50000  0.11989  Biso   1.000  Zr
  Zr21     1.0000 0.00000  0.00000  0.88011  Biso   1.000  Zr
  Zr22     1.0000 0.00000  0.50000  0.38011  Biso   1.000  Zr
  Zr23     1.0000 0.50000  0.00000  0.38011  Biso   1.000  Zr
  Zr24     1.0000 0.50000  0.50000  0.88011  Biso   1.000  Zr
  O1       1.0000 0.05610  0.44390  0.44390  Biso   1.000  O 
  O2       1.0000 0.55610  0.94390  0.44390  Biso   1.000  O 
  O3       1.0000 0.55610  0.44390  0.94390  Biso   1.000  O 
  O4       1.0000 0.44390  0.05610  0.44390  Biso   1.000  O 
  O5       1.0000 0.44390  0.55610  0.94390  Biso   1.000  O 
  O6       1.0000 0.94390  0.94390  0.05610  Biso   1.000  O 
  O7       1.0000 0.94390  0.44390  0.55610  Biso   1.000  O 
  O8       1.0000 0.05610  0.05610  0.05610  Biso   1.000  O 
  O9       1.0000 0.55610  0.55610  0.05610  Biso   1.000  O 
  O10      1.0000 0.94390  0.05610  0.05610  Biso   1.000  O 
  O11      1.0000 0.94390  0.55610  0.55610  Biso   1.000  O 
  O12      1.0000 0.44390  0.05610  0.55610  Biso   1.000  O 
  O13      1.0000 0.44390  0.55610  0.05610  Biso   1.000  O 
  O14      1.0000 0.05610  0.94390  0.05610  Biso   1.000  O 
  O15      1.0000 0.05610  0.44390  0.55610  Biso   1.000  O 
  O16      1.0000 0.55610  0.94390  0.55610  Biso   1.000  O 
  O17      1.0000 0.55610  0.44390  0.05610  Biso   1.000  O 
  O18      1.0000 0.94390  0.94390  0.94390  Biso   1.000  O 
  O19      1.0000 0.94390  0.44390  0.44390  Biso   1.000  O 
  O20      1.0000 0.44390  0.94390  0.44390  Biso   1.000  O 
  O21      1.0000 0.44390  0.44390  0.94390  Biso   1.000  O 
  O22      1.0000 0.05610  0.05610  0.94390  Biso   1.000  O 
  O23      1.0000 0.05610  0.55610  0.44390  Biso   1.000  O 
  O24      1.0000 0.55610  0.05610  0.44390  Biso   1.000  O 
  C1       1.0000 0.15360  0.00000  0.84640  Biso   1.000  C 
  O25      1.0000 0.17046  0.00000  0.90471  Biso   1.000  O 
  O26      1.0000 0.09529  0.00000  0.82954  Biso   1.000  O 
  C2       1.0000 0.20500  0.00000  0.79500  Biso   1.000  C 
  C3       1.0000 0.18437  0.00000  0.73249  Biso   1.000  C 
  H1       1.0000 0.13046  0.00000  0.72128  Biso   1.000  H 
  O27      1.0000 0.21339  0.01584  0.61969  Biso   1.000  O 
  C4       1.0000 0.23249  0.00000  0.68442  Biso   1.000  C 
  C5       1.0000 0.29500  0.00000  0.70500  Biso   1.000  C 
  C6       1.0000 0.31558  0.00000  0.76751  Biso   1.000  C 
  C7       1.0000 0.26751  0.00000  0.81563  Biso   1.000  C 
  O28      1.0000 0.28920  0.01040  0.88197  Biso   1.000  O 
  H2       1.0000 0.36949  0.00000  0.77872  Biso   1.000  H 
  O29      1.0000 0.40470  0.00000  0.67046  Biso   1.000  O 
  C8       1.0000 0.34640  0.00000  0.65360  Biso   1.000  C 
  O30      1.0000 0.32954  0.00000  0.59529  Biso   1.000  O 
  C9       1.0000 0.21119  0.96680  0.57465  Biso   1.000  C 
  C10      1.0000 0.21977  0.00170  0.51126  Biso   1.000  C 
  H3       1.0000 0.24787  0.92844  0.58487  Biso   1.000  H 
  H4       1.0000 0.16721  0.94323  0.57278  Biso   1.000  H 
  H5       1.0000 0.25147  0.03845  0.52159  Biso   1.000  H 
  C11      1.0000 0.16301  0.03749  0.47648  Biso   1.000  C 
  H6       1.0000 0.24380  0.97103  0.48115  Biso   1.000  H 
  H7       1.0000 0.14141  0.06823  0.51488  Biso   1.000  H 
  H8       1.0000 0.12766  0.00125  0.46495  Biso   1.000  H 
  C12      1.0000 0.18040  0.08504  0.41497  Biso   1.000  C 
  C13      1.0000 0.29001  0.96387  0.92975  Biso   1.000  C 
  C14      1.0000 0.26676  0.00543  0.98725  Biso   1.000  C 
  H9       1.0000 0.33992  0.94751  0.93752  Biso   1.000  H 
  H10      1.0000 0.25751  0.92168  0.91942  Biso   1.000  H 
  H11      1.0000 0.25011  0.04743  0.96634  Biso   1.000  H 
  C15      1.0000 0.31615  0.03264  0.03024  Biso   1.000  C 
  H12      1.0000 0.23261  0.98358  0.01218  Biso   1.000  H 
  H13      1.0000 0.33420  0.98999  0.04787  Biso   1.000  H 
  H14      1.0000 0.35213  0.05508  0.00180  Biso   1.000  H 
  C16      1.0000 0.30495  0.07899  0.09393  Biso   1.000  C 
  H15      1.0000 0.25264  0.08012  0.10598  Biso   1.000  H 
  H16      1.0000 0.31707  0.13016  0.09048  Biso   1.000  H 
  H17      1.0000 0.33664  0.06817  0.13517  Biso   1.000  H 
  H18      1.0000 0.23328  0.08865  0.40806  Biso   1.000  H 
  H19      1.0000 0.16332  0.13327  0.42083  Biso   1.000  H 
  H20      1.0000 0.16192  0.07194  0.36891  Biso   1.000  H 
  C17      1.0000 0.15360  0.50000  0.34640  Biso   1.000  C 
  O31      1.0000 0.17046  0.50000  0.40471  Biso   1.000  O 
  O32      1.0000 0.09529  0.50000  0.32954  Biso   1.000  O 
  C18      1.0000 0.20500  0.50000  0.29500  Biso   1.000  C 
  C19      1.0000 0.18437  0.50000  0.23249  Biso   1.000  C 
  H21      1.0000 0.13046  0.50000  0.22128  Biso   1.000  H 
  O33      1.0000 0.21550  0.51862  0.11892  Biso   1.000  O 
  C20      1.0000 0.23249  0.50000  0.18442  Biso   1.000  C 
  C21      1.0000 0.29500  0.50000  0.20500  Biso   1.000  C 
  C22      1.0000 0.31558  0.50000  0.26751  Biso   1.000  C 
  C23      1.0000 0.26751  0.50000  0.31563  Biso   1.000  C 
  O34      1.0000 0.28555  0.51713  0.37982  Biso   1.000  O 
  H22      1.0000 0.36949  0.50000  0.27872  Biso   1.000  H 
  O35      1.0000 0.40470  0.50000  0.17046  Biso   1.000  O 
  C24      1.0000 0.34640  0.50000  0.15360  Biso   1.000  C 
  O36      1.0000 0.32954  0.50000  0.09529  Biso   1.000  O 
  C25      1.0000 0.20063  0.46661  0.07886  Biso   1.000  C 
  C26      1.0000 0.19290  0.49173  0.00941  Biso   1.000  C 
  H23      1.0000 0.23874  0.42898  0.08198  Biso   1.000  H 
  H24      1.0000 0.15418  0.44542  0.08707  Biso   1.000  H 
  H25      1.0000 0.24275  0.50504  0.99555  Biso   1.000  H 
  C27      1.0000 0.14376  0.54645  0.99024  Biso   1.000  C 
  H26      1.0000 0.17741  0.45171  0.98000  Biso   1.000  H 
  H27      1.0000 0.09500  0.52631  0.98168  Biso   1.000  H 
  H28      1.0000 0.13894  0.58297  0.02915  Biso   1.000  H 
  C28      1.0000 0.17070  0.57548  0.92499  Biso   1.000  C 
  C29      1.0000 0.29957  0.46687  0.42368  Biso   1.000  C 
  C30      1.0000 0.28201  0.49787  0.49016  Biso   1.000  C 
  H29      1.0000 0.34931  0.45037  0.42066  Biso   1.000  H 
  H30      1.0000 0.26840  0.42415  0.41354  Biso   1.000  H 
  H31      1.0000 0.25017  0.53592  0.47887  Biso   1.000  H 
  C31      1.0000 0.33524  0.52824  0.53155  Biso   1.000  C 
  H32      1.0000 0.25572  0.46454  0.51872  Biso   1.000  H 
  H33      1.0000 0.35220  0.48934  0.55728  Biso   1.000  H 
  H34      1.0000 0.37464  0.54059  0.50235  Biso   1.000  H 
  C32      1.0000 0.31983  0.57689  0.58761  Biso   1.000  C 
  H35      1.0000 0.26761  0.57789  0.59845  Biso   1.000  H 
  H36      1.0000 0.33426  0.62620  0.57875  Biso   1.000  H 
  H37      1.0000 0.34706  0.56309  0.62949  Biso   1.000  H 
  H38      1.0000 0.22388  0.56959  0.92263  Biso   1.000  H 
  H39      1.0000 0.16319  0.62662  0.91508  Biso   1.000  H 
  H40      1.0000 0.15294  0.55256  0.88664  Biso   1.000  H 
  C33      1.0000 0.65360  0.00000  0.34640  Biso   1.000  C 
  O37      1.0000 0.67046  0.00000  0.40471  Biso   1.000  O 
  O38      1.0000 0.59529  0.00000  0.32954  Biso   1.000  O 
  C34      1.0000 0.70500  0.00000  0.29500  Biso   1.000  C 
  C35      1.0000 0.68437  0.00000  0.23249  Biso   1.000  C 
  H41      1.0000 0.63046  0.00000  0.22128  Biso   1.000  H 
  O39      1.0000 0.71319  0.02172  0.11844  Biso   1.000  O 
  C36      1.0000 0.73248  0.00000  0.18442  Biso   1.000  C 
  C37      1.0000 0.79499  0.00000  0.20500  Biso   1.000  C 
  C38      1.0000 0.81558  0.00000  0.26751  Biso   1.000  C 
  C39      1.0000 0.76751  0.00000  0.31563  Biso   1.000  C 
  O40      1.0000 0.78457  0.01829  0.38075  Biso   1.000  O 
  H42      1.0000 0.86949  0.00000  0.27872  Biso   1.000  H 
  O41      1.0000 0.90470  0.00000  0.17046  Biso   1.000  O 
  C40      1.0000 0.84639  0.00000  0.15360  Biso   1.000  C 
  O42      1.0000 0.82953  0.00000  0.09529  Biso   1.000  O 
  C41      1.0000 0.71541  0.97837  0.06376  Biso   1.000  C 
  C42      1.0000 0.73209  0.01993  0.99418  Biso   1.000  C 
  H43      1.0000 0.74879  0.93857  0.07384  Biso   1.000  H 
  H44      1.0000 0.66993  0.95319  0.06867  Biso   1.000  H 
  H45      1.0000 0.75154  0.04956  0.02732  Biso   1.000  H 
  C43      1.0000 0.70828  0.06840  0.92486  Biso   1.000  C 
  H46      1.0000 0.76388  0.98510  0.97847  Biso   1.000  H 
  H47      1.0000 0.67117  0.10327  0.93532  Biso   1.000  H 
  H48      1.0000 0.67829  0.05014  0.89335  Biso   1.000  H 
  C44      1.0000 0.75538  0.11467  0.88364  Biso   1.000  C 
  C45      1.0000 0.79441  0.97102  0.42915  Biso   1.000  C 
  C46      1.0000 0.77650  0.00034  0.50019  Biso   1.000  C 
  H49      1.0000 0.84039  0.94732  0.42391  Biso   1.000  H 
  H50      1.0000 0.75921  0.93188  0.41872  Biso   1.000  H 
  H51      1.0000 0.73510  0.02219  0.48811  Biso   1.000  H 
  C47      1.0000 0.80761  0.04642  0.55722  Biso   1.000  C 
  H52      1.0000 0.76062  0.95774  0.52439  Biso   1.000  H 
  H53      1.0000 0.76545  0.03542  0.57903  Biso   1.000  H 
  H54      1.0000 0.84800  0.02031  0.57722  Biso   1.000  H 
  C48      1.0000 0.79927  0.10479  0.60785  Biso   1.000  C 
  H55      1.0000 0.74708  0.11502  0.62264  Biso   1.000  H 
  H56      1.0000 0.81882  0.15129  0.59523  Biso   1.000  H 
  H57      1.0000 0.82737  0.09540  0.65219  Biso   1.000  H 
  H58      1.0000 0.80608  0.10961  0.89602  Biso   1.000  H 
  H59      1.0000 0.74135  0.16571  0.88901  Biso   1.000  H 
  H60      1.0000 0.75253  0.10916  0.83098  Biso   1.000  H 
  C49      1.0000 0.65360  0.50000  0.84640  Biso   1.000  C 
  O43      1.0000 0.67046  0.50000  0.90471  Biso   1.000  O 
  O44      1.0000 0.59529  0.50000  0.82954  Biso   1.000  O 
  C50      1.0000 0.70500  0.50000  0.79500  Biso   1.000  C 
  C51      1.0000 0.68437  0.50000  0.73249  Biso   1.000  C 
  H61      1.0000 0.63046  0.50000  0.72128  Biso   1.000  H 
  O45      1.0000 0.71620  0.51929  0.62179  Biso   1.000  O 
  C52      1.0000 0.73248  0.50000  0.68442  Biso   1.000  C 
  C53      1.0000 0.79499  0.50000  0.70500  Biso   1.000  C 
  C54      1.0000 0.81558  0.50000  0.76751  Biso   1.000  C 
  C55      1.0000 0.76751  0.50000  0.81563  Biso   1.000  C 
  O46      1.0000 0.78149  0.52080  0.87990  Biso   1.000  O 
  H62      1.0000 0.86949  0.50000  0.77872  Biso   1.000  H 
  O47      1.0000 0.90470  0.50000  0.67046  Biso   1.000  O 
  C56      1.0000 0.84639  0.50000  0.65360  Biso   1.000  C 
  O48      1.0000 0.82953  0.50000  0.59529  Biso   1.000  O 
  C57      1.0000 0.70907  0.46571  0.58341  Biso   1.000  C 
  C58      1.0000 0.69672  0.49957  0.52132  Biso   1.000  C 
  H63      1.0000 0.75157  0.43642  0.57588  Biso   1.000  H 
  H64      1.0000 0.67518  0.43196  0.60124  Biso   1.000  H 
  H65      1.0000 0.73785  0.53202  0.51073  Biso   1.000  H 
  C59      1.0000 0.63375  0.53530  0.51800  Biso   1.000  C 
  H66      1.0000 0.69887  0.46430  0.48615  Biso   1.000  H 
  H67      1.0000 0.59168  0.50611  0.52577  Biso   1.000  H 
  H68      1.0000 0.63452  0.57663  0.55185  Biso   1.000  H 
  C60      1.0000 0.62606  0.55483  0.45084  Biso   1.000  C 
  C61      1.0000 0.81168  0.47966  0.92304  Biso   1.000  C 
  C62      1.0000 0.78477  0.50056  0.99020  Biso   1.000  C 
  H69      1.0000 0.86418  0.48802  0.92043  Biso   1.000  H 
  H70      1.0000 0.80209  0.42835  0.91177  Biso   1.000  H 
  H71      1.0000 0.74721  0.53269  0.98044  Biso   1.000  H 
  C63      1.0000 0.83064  0.53795  0.03536  Biso   1.000  C 
  H72      1.0000 0.76245  0.46170  0.01483  Biso   1.000  H 
  H73      1.0000 0.85381  0.50249  0.06098  Biso   1.000  H 
  H74      1.0000 0.86458  0.55929  0.00466  Biso   1.000  H 
  C64      1.0000 0.80890  0.58513  0.09079  Biso   1.000  C 
  H75      1.0000 0.75658  0.58144  0.10064  Biso   1.000  H 
  H76      1.0000 0.81963  0.63645  0.08857  Biso   1.000  H 
  H77      1.0000 0.83844  0.57097  0.13232  Biso   1.000  H 
  H78      1.0000 0.62664  0.51060  0.42380  Biso   1.000  H 
  H79      1.0000 0.66371  0.58849  0.43372  Biso   1.000  H 
  H80      1.0000 0.57835  0.57545  0.44593  Biso   1.000  H 
  C65      1.0000 0.84640  0.00000  0.84640  Biso   1.000  C 
  O49      1.0000 0.82954  0.00000  0.90471  Biso   1.000  O 
  O50      1.0000 0.90471  0.00000  0.82954  Biso   1.000  O 
  C66      1.0000 0.79500  0.00000  0.79500  Biso   1.000  C 
  C67      1.0000 0.81563  0.00000  0.73249  Biso   1.000  C 
  H81      1.0000 0.86954  0.00000  0.72128  Biso   1.000  H 
  O51      1.0000 0.77434  0.94966  0.63526  Biso   1.000  O 
  C68      1.0000 0.76752  0.00000  0.68442  Biso   1.000  C 
  C69      1.0000 0.70501  0.00000  0.70500  Biso   1.000  C 
  C70      1.0000 0.68442  0.00000  0.76751  Biso   1.000  C 
  C71      1.0000 0.73249  0.00000  0.81563  Biso   1.000  C 
  O52      1.0000 0.72236  0.96424  0.87425  Biso   1.000  O 
  H82      1.0000 0.63051  0.00000  0.77872  Biso   1.000  H 
  O53      1.0000 0.59530  0.00000  0.67046  Biso   1.000  O 
  C72      1.0000 0.65361  0.00000  0.65360  Biso   1.000  C 
  O54      1.0000 0.67047  0.00000  0.59529  Biso   1.000  O 
  C73      1.0000 0.73289  0.88891  0.64147  Biso   1.000  C 
  C74      1.0000 0.72091  0.85461  0.70602  Biso   1.000  C 
  H83      1.0000 0.68736  0.89403  0.61926  Biso   1.000  H 
  H84      1.0000 0.75564  0.85181  0.61271  Biso   1.000  H 
  H85      1.0000 0.75863  0.81636  0.70998  Biso   1.000  H 
  C75      1.0000 0.65477  0.81680  0.70865  Biso   1.000  C 
  H86      1.0000 0.72548  0.88941  0.74885  Biso   1.000  H 
  H87      1.0000 0.61364  0.85212  0.71188  Biso   1.000  H 
  H88      1.0000 0.65491  0.78777  0.75349  Biso   1.000  H 
  C76      1.0000 0.65253  0.77487  0.64924  Biso   1.000  C 
  C77      1.0000 0.66401  0.93871  0.88283  Biso   1.000  C 
  C78      1.0000 0.62702  0.96296  0.94409  Biso   1.000  C 
  H89      1.0000 0.68526  0.89337  0.89684  Biso   1.000  H 
  H90      1.0000 0.63786  0.92859  0.83885  Biso   1.000  H 
  H91      1.0000 0.59383  0.93431  0.95680  Biso   1.000  H 
  C79      1.0000 0.58344  0.02443  0.96314  Biso   1.000  C 
  H92      1.0000 0.65834  0.94721  0.97651  Biso   1.000  H 
  H93      1.0000 0.58699  0.06285  0.93086  Biso   1.000  H 
  H94      1.0000 0.53282  0.01715  0.96414  Biso   1.000  H 
  C80      1.0000 0.59423  0.05598  0.02882  Biso   1.000  C 
  H95      1.0000 0.62002  0.10140  0.02689  Biso   1.000  H 
  H96      1.0000 0.55095  0.06303  0.05307  Biso   1.000  H 
  H97      1.0000 0.61727  0.02892  0.05995  Biso   1.000  H 
  H98      1.0000 0.69936  0.77090  0.62903  Biso   1.000  H 
  H99      1.0000 0.62174  0.79554  0.61271  Biso   1.000  H 
  H100     1.0000 0.63460  0.72651  0.66153  Biso   1.000  H 
  C81      1.0000 0.84640  0.50000  0.34640  Biso   1.000  C 
  O55      1.0000 0.82954  0.50000  0.40471  Biso   1.000  O 
  O56      1.0000 0.90471  0.50000  0.32954  Biso   1.000  O 
  C82      1.0000 0.79500  0.50000  0.29500  Biso   1.000  C 
  C83      1.0000 0.81563  0.50000  0.23249  Biso   1.000  C 
  H101     1.0000 0.86954  0.50000  0.22128  Biso   1.000  H 
  O57      1.0000 0.77888  0.46524  0.12477  Biso   1.000  O 
  C84      1.0000 0.76752  0.50000  0.18442  Biso   1.000  C 
  C85      1.0000 0.70501  0.50000  0.20500  Biso   1.000  C 
  C86      1.0000 0.68442  0.50000  0.26751  Biso   1.000  C 
  C87      1.0000 0.73249  0.50000  0.31563  Biso   1.000  C 
  O58      1.0000 0.71764  0.47940  0.37840  Biso   1.000  O 
  H102     1.0000 0.63051  0.50000  0.27872  Biso   1.000  H 
  O59      1.0000 0.59530  0.50000  0.17046  Biso   1.000  O 
  C88      1.0000 0.65361  0.50000  0.15360  Biso   1.000  C 
  O60      1.0000 0.67047  0.50000  0.09529  Biso   1.000  O 
  C89      1.0000 0.75374  0.40138  0.12227  Biso   1.000  C 
  C90      1.0000 0.74913  0.35780  0.18024  Biso   1.000  C 
  H103     1.0000 0.70942  0.40152  0.09727  Biso   1.000  H 
  H104     1.0000 0.78900  0.38482  0.09032  Biso   1.000  H 
  H105     1.0000 0.78066  0.37315  0.22020  Biso   1.000  H 
  C91      1.0000 0.76557  0.29217  0.15673  Biso   1.000  C 
  H106     1.0000 0.69921  0.36112  0.20055  Biso   1.000  H 
  H107     1.0000 0.73806  0.27464  0.11535  Biso   1.000  H 
  H108     1.0000 0.75442  0.26296  0.19434  Biso   1.000  H 
  C92      1.0000 0.83759  0.28446  0.14603  Biso   1.000  C 
  C93      1.0000 0.73112  0.41491  0.37372  Biso   1.000  C 
  C94      1.0000 0.67347  0.38228  0.39033  Biso   1.000  C 
  H109     1.0000 0.76664  0.40219  0.41148  Biso   1.000  H 
  H110     1.0000 0.75018  0.39349  0.32660  Biso   1.000  H 
  H111     1.0000 0.69111  0.33790  0.39256  Biso   1.000  H 
  C95      1.0000 0.61276  0.38170  0.34999  Biso   1.000  C 
  H112     1.0000 0.66046  0.39676  0.43712  Biso   1.000  H 
  H113     1.0000 0.61681  0.41478  0.31184  Biso   1.000  H 
  H114     1.0000 0.60648  0.33843  0.32293  Biso   1.000  H 
  C96      1.0000 0.55655  0.38679  0.39865  Biso   1.000  C 
  H115     1.0000 0.55447  0.34175  0.41734  Biso   1.000  H 
  H116     1.0000 0.56734  0.42103  0.43758  Biso   1.000  H 
  H117     1.0000 0.50841  0.39651  0.38830  Biso   1.000  H 
  H118     1.0000 0.84676  0.24896  0.10846  Biso   1.000  H 
  H119     1.0000 0.85529  0.26863  0.19309  Biso   1.000  H 
  H120     1.0000 0.86061  0.32467  0.13040  Biso   1.000  H 
  C97      1.0000 0.34640  0.00000  0.34640  Biso   1.000  C 
  O61      1.0000 0.32954  0.00000  0.40471  Biso   1.000  O 
  O62      1.0000 0.40471  0.00000  0.32954  Biso   1.000  O 
  C98      1.0000 0.29500  0.00000  0.29500  Biso   1.000  C 
  C99      1.0000 0.31563  0.00000  0.23249  Biso   1.000  C 
  H121     1.0000 0.36954  0.00000  0.22128  Biso   1.000  H 
  O63      1.0000 0.27591  0.95831  0.12558  Biso   1.000  O 
  C100     1.0000 0.26751  0.00000  0.18442  Biso   1.000  C 
  C101     1.0000 0.20500  0.00000  0.20500  Biso   1.000  C 
  C102     1.0000 0.18442  0.00000  0.26751  Biso   1.000  C 
  C103     1.0000 0.23249  0.00000  0.31563  Biso   1.000  C 
  O64      1.0000 0.21850  0.97716  0.37736  Biso   1.000  O 
  H122     1.0000 0.13051  0.00000  0.27872  Biso   1.000  H 
  O65      1.0000 0.09530  0.00000  0.17046  Biso   1.000  O 
  C104     1.0000 0.15360  0.00000  0.15360  Biso   1.000  C 
  O66      1.0000 0.17046  0.00000  0.09529  Biso   1.000  O 
  C105     1.0000 0.25578  0.89347  0.12525  Biso   1.000  C 
  C106     1.0000 0.19457  0.85577  0.15178  Biso   1.000  C 
  H123     1.0000 0.24175  0.89274  0.08023  Biso   1.000  H 
  H124     1.0000 0.29762  0.85805  0.13082  Biso   1.000  H 
  H125     1.0000 0.15051  0.87754  0.13500  Biso   1.000  H 
  C107     1.0000 0.19600  0.84052  0.22625  Biso   1.000  C 
  H126     1.0000 0.19018  0.80708  0.13526  Biso   1.000  H 
  H127     1.0000 0.16289  0.80079  0.23828  Biso   1.000  H 
  H128     1.0000 0.17861  0.88421  0.24776  Biso   1.000  H 
  C108     1.0000 0.26242  0.82514  0.24344  Biso   1.000  C 
  C109     1.0000 0.23568  0.91251  0.37590  Biso   1.000  C 
  C110     1.0000 0.17449  0.87733  0.37139  Biso   1.000  C 
  H129     1.0000 0.25186  0.90081  0.42040  Biso   1.000  H 
  H130     1.0000 0.27800  0.90289  0.34956  Biso   1.000  H 
  H131     1.0000 0.17816  0.84134  0.33632  Biso   1.000  H 
  C111     1.0000 0.11405  0.91635  0.36190  Biso   1.000  C 
  H132     1.0000 0.16947  0.85359  0.41396  Biso   1.000  H 
  H133     1.0000 0.11763  0.96759  0.36738  Biso   1.000  H 
  H134     1.0000 0.10242  0.90577  0.31388  Biso   1.000  H 
  C112     1.0000 0.06342  0.90219  0.40889  Biso   1.000  C 
  H135     1.0000 0.05595  0.94318  0.43976  Biso   1.000  H 
  H136     1.0000 0.01758  0.88730  0.38936  Biso   1.000  H 
  H137     1.0000 0.07676  0.86478  0.43857  Biso   1.000  H 
  H138     1.0000 0.27477  0.82721  0.29022  Biso   1.000  H 
  H139     1.0000 0.28803  0.86941  0.22447  Biso   1.000  H 
  H140     1.0000 0.28775  0.78042  0.22585  Biso   1.000  H 
  C113     1.0000 0.34640  0.50000  0.84640  Biso   1.000  C 
  O67      1.0000 0.32954  0.50000  0.90471  Biso   1.000  O 
  O68      1.0000 0.40471  0.50000  0.82954  Biso   1.000  O 
  C114     1.0000 0.29500  0.50000  0.79500  Biso   1.000  C 
  C115     1.0000 0.31563  0.50000  0.73249  Biso   1.000  C 
  H141     1.0000 0.36954  0.50000  0.72128  Biso   1.000  H 
  O69      1.0000 0.27705  0.46529  0.62754  Biso   1.000  O 
  C116     1.0000 0.26751  0.50000  0.68442  Biso   1.000  C 
  C117     1.0000 0.20500  0.50000  0.70500  Biso   1.000  C 
  C118     1.0000 0.18442  0.50000  0.76751  Biso   1.000  C 
  C119     1.0000 0.23249  0.50000  0.81563  Biso   1.000  C 
  O70      1.0000 0.22492  0.46936  0.87663  Biso   1.000  O 
  H142     1.0000 0.13051  0.50000  0.77872  Biso   1.000  H 
  O71      1.0000 0.09530  0.50000  0.67046  Biso   1.000  O 
  C120     1.0000 0.15360  0.50000  0.65360  Biso   1.000  C 
  O72      1.0000 0.17046  0.50000  0.59529  Biso   1.000  O 
  C121     1.0000 0.24668  0.40203  0.63546  Biso   1.000  C 
  C122     1.0000 0.25973  0.36955  0.70044  Biso   1.000  C 
  H143     1.0000 0.19433  0.39948  0.63107  Biso   1.000  H 
  H144     1.0000 0.26079  0.37889  0.59427  Biso   1.000  H 
  H145     1.0000 0.30400  0.38420  0.72398  Biso   1.000  H 
  C123     1.0000 0.25451  0.29963  0.69720  Biso   1.000  C 
  H146     1.0000 0.21798  0.38531  0.73157  Biso   1.000  H 
  H147     1.0000 0.20402  0.28784  0.68772  Biso   1.000  H 
  H148     1.0000 0.26753  0.28524  0.74628  Biso   1.000  H 
  C124     1.0000 0.29652  0.27713  0.64149  Biso   1.000  C 
  C125     1.0000 0.23243  0.40481  0.86871  Biso   1.000  C 
  C126     1.0000 0.16439  0.38010  0.86983  Biso   1.000  C 
  H149     1.0000 0.26198  0.38993  0.90842  Biso   1.000  H 
  H150     1.0000 0.25729  0.38686  0.82490  Biso   1.000  H 
  H151     1.0000 0.15881  0.34608  0.82841  Biso   1.000  H 
  C127     1.0000 0.10790  0.42465  0.86800  Biso   1.000  C 
  H152     1.0000 0.15835  0.36008  0.91451  Biso   1.000  H 
  H153     1.0000 0.12558  0.46646  0.88413  Biso   1.000  H 
  H154     1.0000 0.09630  0.42613  0.81884  Biso   1.000  H 
  C128     1.0000 0.05278  0.42625  0.91317  Biso   1.000  C 
  H155     1.0000 0.01984  0.38880  0.89793  Biso   1.000  H 
  H156     1.0000 0.07600  0.41835  0.95954  Biso   1.000  H 
  H157     1.0000 0.02230  0.46975  0.91869  Biso   1.000  H 
  H158     1.0000 0.32004  0.23344  0.63407  Biso   1.000  H 
  H159     1.0000 0.33129  0.31159  0.62434  Biso   1.000  H 
  H160     1.0000 0.26046  0.27452  0.60486  Biso   1.000  H 
  C129     1.0000 0.84640  0.15360  0.00000  Biso   1.000  C 
  O73      1.0000 0.90471  0.17046  0.00000  Biso   1.000  O 
  O74      1.0000 0.82954  0.09529  0.00000  Biso   1.000  O 
  C130     1.0000 0.79500  0.20500  0.00000  Biso   1.000  C 
  C131     1.0000 0.73249  0.18437  0.00000  Biso   1.000  C 
  H161     1.0000 0.72128  0.13046  0.00000  Biso   1.000  H 
  O75      1.0000 0.62207  0.21366  0.02484  Biso   1.000  O 
  C132     1.0000 0.68442  0.23249  0.00000  Biso   1.000  C 
  C133     1.0000 0.70500  0.29500  0.00000  Biso   1.000  C 
  C134     1.0000 0.76751  0.31558  0.00000  Biso   1.000  C 
  C135     1.0000 0.81563  0.26751  0.00000  Biso   1.000  C 
  O76      1.0000 0.87887  0.28683  0.01419  Biso   1.000  O 
  H162     1.0000 0.77872  0.36949  0.00000  Biso   1.000  H 
  O77      1.0000 0.67046  0.40470  0.00000  Biso   1.000  O 
  C136     1.0000 0.65360  0.34640  0.00000  Biso   1.000  C 
  O78      1.0000 0.59529  0.32954  0.00000  Biso   1.000  O 
  C137     1.0000 0.58029  0.20664  0.97172  Biso   1.000  C 
  C138     1.0000 0.51299  0.21415  0.99695  Biso   1.000  C 
  H163     1.0000 0.58617  0.24374  0.93369  Biso   1.000  H 
  H164     1.0000 0.58670  0.16098  0.94796  Biso   1.000  H 
  H165     1.0000 0.50294  0.26293  0.01373  Biso   1.000  H 
  C139     1.0000 0.49400  0.16052  0.03810  Biso   1.000  C 
  H166     1.0000 0.48039  0.20627  0.95824  Biso   1.000  H 
  H167     1.0000 0.48829  0.11820  0.00692  Biso   1.000  H 
  H168     1.0000 0.53276  0.15340  0.07395  Biso   1.000  H 
  C140     1.0000 0.42940  0.17413  0.06830  Biso   1.000  C 
  C141     1.0000 0.91788  0.28994  0.96052  Biso   1.000  C 
  C142     1.0000 0.98141  0.27410  0.99550  Biso   1.000  C 
  H169     1.0000 0.91458  0.33871  0.93766  Biso   1.000  H 
  H170     1.0000 0.90734  0.25357  0.92255  Biso   1.000  H 
  H171     1.0000 0.97102  0.25963  0.04389  Biso   1.000  H 
  C143     1.0000 0.02137  0.32849  0.00022  Biso   1.000  C 
  H172     1.0000 0.00977  0.23588  0.97842  Biso   1.000  H 
  H173     1.0000 0.04336  0.32207  0.95572  Biso   1.000  H 
  H174     1.0000 0.99297  0.37073  0.99486  Biso   1.000  H 
  C144     1.0000 0.07044  0.33526  0.05378  Biso   1.000  C 
  H175     1.0000 0.08766  0.28867  0.07372  Biso   1.000  H 
  H176     1.0000 0.04481  0.36046  0.08920  Biso   1.000  H 
  H177     1.0000 0.11270  0.36446  0.04068  Biso   1.000  H 
  H178     1.0000 0.41565  0.22610  0.06894  Biso   1.000  H 
  H179     1.0000 0.42403  0.15624  0.11823  Biso   1.000  H 
  H180     1.0000 0.39779  0.14691  0.04015  Biso   1.000  H 
  C145     1.0000 0.84640  0.65360  0.50000  Biso   1.000  C 
  O79      1.0000 0.90471  0.67046  0.50000  Biso   1.000  O 
  O80      1.0000 0.82954  0.59529  0.50000  Biso   1.000  O 
  C146     1.0000 0.79500  0.70500  0.50000  Biso   1.000  C 
  C147     1.0000 0.73249  0.68437  0.50000  Biso   1.000  C 
  H181     1.0000 0.72128  0.63046  0.50000  Biso   1.000  H 
  O81      1.0000 0.61945  0.71469  0.51066  Biso   1.000  O 
  C148     1.0000 0.68442  0.73248  0.50000  Biso   1.000  C 
  C149     1.0000 0.70500  0.79499  0.50000  Biso   1.000  C 
  C150     1.0000 0.76751  0.81558  0.50000  Biso   1.000  C 
  C151     1.0000 0.81563  0.76751  0.50000  Biso   1.000  C 
  O82      1.0000 0.88094  0.78376  0.51387  Biso   1.000  O 
  H182     1.0000 0.77872  0.86949  0.50000  Biso   1.000  H 
  O83      1.0000 0.67046  0.90470  0.50000  Biso   1.000  O 
  C152     1.0000 0.65360  0.84639  0.50000  Biso   1.000  C 
  O84      1.0000 0.59529  0.82953  0.50000  Biso   1.000  O 
  C153     1.0000 0.58512  0.70699  0.45344  Biso   1.000  C 
  C154     1.0000 0.51774  0.69104  0.47807  Biso   1.000  C 
  H183     1.0000 0.58552  0.75176  0.42440  Biso   1.000  H 
  H184     1.0000 0.60530  0.67027  0.42226  Biso   1.000  H 
  H185     1.0000 0.49451  0.73791  0.48886  Biso   1.000  H 
  C155     1.0000 0.51543  0.64745  0.53670  Biso   1.000  C 
  H186     1.0000 0.48929  0.66536  0.44354  Biso   1.000  H 
  H187     1.0000 0.52427  0.59800  0.52274  Biso   1.000  H 
  H188     1.0000 0.55152  0.66009  0.57399  Biso   1.000  H 
  C156     1.0000 0.45135  0.64611  0.56542  Biso   1.000  C 
  C157     1.0000 0.92367  0.79418  0.46236  Biso   1.000  C 
  C158     1.0000 0.99036  0.78736  0.49450  Biso   1.000  C 
  H189     1.0000 0.91832  0.83967  0.43450  Biso   1.000  H 
  H190     1.0000 0.91782  0.75432  0.42680  Biso   1.000  H 
  H191     1.0000 0.98745  0.74721  0.52649  Biso   1.000  H 
  C159     1.0000 0.02026  0.84219  0.53497  Biso   1.000  C 
  H192     1.0000 0.02296  0.77383  0.46035  Biso   1.000  H 
  H193     1.0000 0.02083  0.88926  0.51579  Biso   1.000  H 
  H194     1.0000 0.98899  0.84840  0.57201  Biso   1.000  H 
  C160     1.0000 0.08304  0.82540  0.57431  Biso   1.000  C 
  H195     1.0000 0.09230  0.77224  0.57568  Biso   1.000  H 
  H196     1.0000 0.08144  0.84039  0.62518  Biso   1.000  H 
  H197     1.0000 0.12311  0.85128  0.55268  Biso   1.000  H 
  H198     1.0000 0.42651  0.69258  0.56808  Biso   1.000  H 
  H199     1.0000 0.46005  0.63265  0.61179  Biso   1.000  H 
  H200     1.0000 0.42514  0.61073  0.54206  Biso   1.000  H 
  C161     1.0000 0.34640  0.15360  0.50000  Biso   1.000  C 
  O85      1.0000 0.40471  0.17046  0.50000  Biso   1.000  O 
  O86      1.0000 0.32954  0.09529  0.50000  Biso   1.000  O 
  C162     1.0000 0.29500  0.20500  0.50000  Biso   1.000  C 
  C163     1.0000 0.23249  0.18437  0.50000  Biso   1.000  C 
  H201     1.0000 0.22128  0.13046  0.50000  Biso   1.000  H 
  O87      1.0000 0.12032  0.21524  0.52226  Biso   1.000  O 
  C164     1.0000 0.18442  0.23249  0.50000  Biso   1.000  C 
  C165     1.0000 0.20500  0.29500  0.50000  Biso   1.000  C 
  C166     1.0000 0.26751  0.31558  0.50000  Biso   1.000  C 
  C167     1.0000 0.31563  0.26751  0.50000  Biso   1.000  C 
  O88      1.0000 0.38129  0.28591  0.51699  Biso   1.000  O 
  H202     1.0000 0.27872  0.36949  0.50000  Biso   1.000  H 
  O89      1.0000 0.17046  0.40470  0.50000  Biso   1.000  O 
  C168     1.0000 0.15360  0.34640  0.50000  Biso   1.000  C 
  O90      1.0000 0.09529  0.32954  0.50000  Biso   1.000  O 
  C169     1.0000 0.07462  0.20926  0.47266  Biso   1.000  C 
  C170     1.0000 0.01187  0.20389  0.50588  Biso   1.000  C 
  H203     1.0000 0.07609  0.24782  0.43607  Biso   1.000  H 
  H204     1.0000 0.07894  0.16361  0.44823  Biso   1.000  H 
  H205     1.0000 0.00112  0.24907  0.52909  Biso   1.000  H 
  C171     1.0000 0.00905  0.14509  0.54981  Biso   1.000  C 
  H206     1.0000 0.97868  0.19956  0.46867  Biso   1.000  H 
  H207     1.0000 0.04537  0.14800  0.58841  Biso   1.000  H 
  H208     1.0000 0.02015  0.10152  0.52315  Biso   1.000  H 
  C172     1.0000 0.94167  0.14324  0.58037  Biso   1.000  C 
  C173     1.0000 0.42932  0.29289  0.46796  Biso   1.000  C 
  C174     1.0000 0.50087  0.28033  0.50134  Biso   1.000  C 
  H209     1.0000 0.42463  0.33940  0.44246  Biso   1.000  H 
  H210     1.0000 0.42026  0.25555  0.43089  Biso   1.000  H 
  H211     1.0000 0.48825  0.24564  0.53340  Biso   1.000  H 
  C175     1.0000 0.55287  0.32564  0.53980  Biso   1.000  C 
  H212     1.0000 0.52823  0.25641  0.46532  Biso   1.000  H 
  H213     1.0000 0.58127  0.35747  0.51127  Biso   1.000  H 
  H214     1.0000 0.52815  0.35405  0.57231  Biso   1.000  H 
  C176     1.0000 0.60416  0.30106  0.59275  Biso   1.000  C 
  H215     1.0000 0.60665  0.24795  0.58973  Biso   1.000  H 
  H216     1.0000 0.59503  0.31420  0.64308  Biso   1.000  H 
  H217     1.0000 0.65170  0.32313  0.58801  Biso   1.000  H 
  H218     1.0000 0.90981  0.17602  0.55867  Biso   1.000  H 
  H219     1.0000 0.93385  0.15603  0.62935  Biso   1.000  H 
  H220     1.0000 0.92449  0.09541  0.57661  Biso   1.000  H 
  C177     1.0000 0.34640  0.65360  0.00000  Biso   1.000  C 
  O91      1.0000 0.40471  0.67046  0.00000  Biso   1.000  O 
  O92      1.0000 0.32954  0.59529  0.00000  Biso   1.000  O 
  C178     1.0000 0.29500  0.70500  0.00000  Biso   1.000  C 
  C179     1.0000 0.23249  0.68437  0.00000  Biso   1.000  C 
  H221     1.0000 0.22128  0.63046  0.00000  Biso   1.000  H 
  O93      1.0000 0.12162  0.71599  0.02429  Biso   1.000  O 
  C180     1.0000 0.18442  0.73248  0.00000  Biso   1.000  C 
  C181     1.0000 0.20500  0.79499  0.00000  Biso   1.000  C 
  C182     1.0000 0.26751  0.81558  0.00000  Biso   1.000  C 
  C183     1.0000 0.31563  0.76751  0.00000  Biso   1.000  C 
  O94      1.0000 0.38007  0.78468  0.01730  Biso   1.000  O 
  H222     1.0000 0.27872  0.86949  0.00000  Biso   1.000  H 
  O95      1.0000 0.17046  0.90470  0.00000  Biso   1.000  O 
  C184     1.0000 0.15360  0.84639  0.00000  Biso   1.000  C 
  O96      1.0000 0.09529  0.82953  0.00000  Biso   1.000  O 
  C185     1.0000 0.08101  0.70467  0.97145  Biso   1.000  C 
  C186     1.0000 0.01541  0.70537  0.99940  Biso   1.000  C 
  H223     1.0000 0.08614  0.73994  0.93097  Biso   1.000  H 
  H224     1.0000 0.08272  0.65612  0.95175  Biso   1.000  H 
  H225     1.0000 0.00748  0.75071  0.02384  Biso   1.000  H 
  C187     1.0000 0.00347  0.64813  0.04255  Biso   1.000  C 
  H226     1.0000 0.97994  0.70134  0.96126  Biso   1.000  H 
  H227     1.0000 0.00577  0.60345  0.01279  Biso   1.000  H 
  H228     1.0000 0.04260  0.64535  0.07925  Biso   1.000  H 
  C188     1.0000 0.93531  0.65889  0.06896  Biso   1.000  C 
  C189     1.0000 0.41772  0.78984  0.96145  Biso   1.000  C 
  C190     1.0000 0.48868  0.78065  0.99066  Biso   1.000  C 
  H229     1.0000 0.39802  0.82752  0.92950  Biso   1.000  H 
  H230     1.0000 0.41145  0.74721  0.92989  Biso   1.000  H 
  H231     1.0000 0.47445  0.74521  0.02651  Biso   1.000  H 
  C191     1.0000 0.53700  0.81397  0.03557  Biso   1.000  C 
  H232     1.0000 0.51794  0.75180  0.96174  Biso   1.000  H 
  H233     1.0000 0.50239  0.83103  0.06003  Biso   1.000  H 
  H234     1.0000 0.56208  0.77160  0.05955  Biso   1.000  H 
  C192     1.0000 0.58306  0.86608  0.05140  Biso   1.000  C 
  H235     1.0000 0.60745  0.85183  0.09499  Biso   1.000  H 
  H236     1.0000 0.56635  0.91434  0.05809  Biso   1.000  H 
  H237     1.0000 0.62024  0.86632  0.01797  Biso   1.000  H 
  H238     1.0000 0.92021  0.70961  0.07675  Biso   1.000  H 
  H239     1.0000 0.92573  0.63247  0.11262  Biso   1.000  H 
  H240     1.0000 0.90392  0.64093  0.03220  Biso   1.000  H 
  C193     1.0000 0.84640  0.84640  0.00000  Biso   1.000  C 
  O97      1.0000 0.90471  0.82954  0.00000  Biso   1.000  O 
  O98      1.0000 0.82954  0.90471  0.00000  Biso   1.000  O 
  C194     1.0000 0.79500  0.79500  0.00000  Biso   1.000  C 
  C195     1.0000 0.73249  0.81563  0.00000  Biso   1.000  C 
  H241     1.0000 0.72128  0.86954  0.00000  Biso   1.000  H 
  O99      1.0000 0.62553  0.77821  0.96567  Biso   1.000  O 
  C196     1.0000 0.68442  0.76752  0.00000  Biso   1.000  C 
  C197     1.0000 0.70500  0.70501  0.00000  Biso   1.000  C 
  C198     1.0000 0.76751  0.68442  0.00000  Biso   1.000  C 
  C199     1.0000 0.81563  0.73249  0.00000  Biso   1.000  C 
  O100     1.0000 0.87266  0.72061  0.96283  Biso   1.000  O 
  H242     1.0000 0.77872  0.63051  0.00000  Biso   1.000  H 
  O101     1.0000 0.67046  0.59530  0.00000  Biso   1.000  O 
  C200     1.0000 0.65360  0.65361  0.00000  Biso   1.000  C 
  O102     1.0000 0.59529  0.67047  0.00000  Biso   1.000  O 
  C201     1.0000 0.63008  0.78828  0.90107  Biso   1.000  C 
  C202     1.0000 0.58598  0.84580  0.89010  Biso   1.000  C 
  H243     1.0000 0.68053  0.79555  0.88315  Biso   1.000  H 
  H244     1.0000 0.61049  0.74458  0.87651  Biso   1.000  H 
  H245     1.0000 0.58871  0.83901  0.83864  Biso   1.000  H 
  C203     1.0000 0.51786  0.88398  0.90396  Biso   1.000  C 
  H246     1.0000 0.55551  0.82500  0.91733  Biso   1.000  H 
  H247     1.0000 0.47618  0.86419  0.88088  Biso   1.000  H 
  H248     1.0000 0.53282  0.92438  0.87851  Biso   1.000  H 
  C204     1.0000 0.47500  0.91847  0.95328  Biso   1.000  C 
  C205     1.0000 0.86379  0.75100  0.90134  Biso   1.000  C 
  C206     1.0000 0.83477  0.70341  0.85857  Biso   1.000  C 
  H249     1.0000 0.91095  0.76391  0.88662  Biso   1.000  H 
  H250     1.0000 0.83408  0.79420  0.89378  Biso   1.000  H 
  H251     1.0000 0.78248  0.71180  0.84998  Biso   1.000  H 
  C207     1.0000 0.83950  0.63379  0.87919  Biso   1.000  C 
  H252     1.0000 0.86323  0.71185  0.81610  Biso   1.000  H 
  H253     1.0000 0.80991  0.61965  0.91613  Biso   1.000  H 
  H254     1.0000 0.82285  0.60944  0.83844  Biso   1.000  H 
  C208     1.0000 0.90564  0.61085  0.89318  Biso   1.000  C 
  H255     1.0000 0.91320  0.56397  0.86850  Biso   1.000  H 
  H256     1.0000 0.93822  0.64668  0.87687  Biso   1.000  H 
  H257     1.0000 0.91980  0.60465  0.94260  Biso   1.000  H 
  H258     1.0000 0.43379  0.89863  0.97392  Biso   1.000  H 
  H259     1.0000 0.45732  0.96373  0.92986  Biso   1.000  H 
  H260     1.0000 0.50305  0.93037  0.99149  Biso   1.000  H 
  C209     1.0000 0.84640  0.34640  0.50000  Biso   1.000  C 
  O103     1.0000 0.90471  0.32954  0.50000  Biso   1.000  O 
  O104     1.0000 0.82954  0.40471  0.50000  Biso   1.000  O 
  C210     1.0000 0.79500  0.29500  0.50000  Biso   1.000  C 
  C211     1.0000 0.73249  0.31563  0.50000  Biso   1.000  C 
  H261     1.0000 0.72128  0.36954  0.50000  Biso   1.000  H 
  O105     1.0000 0.63242  0.27674  0.45268  Biso   1.000  O 
  C212     1.0000 0.68442  0.26751  0.50000  Biso   1.000  C 
  C213     1.0000 0.70500  0.20500  0.50000  Biso   1.000  C 
  C214     1.0000 0.76751  0.18442  0.50000  Biso   1.000  C 
  C215     1.0000 0.81563  0.23249  0.50000  Biso   1.000  C 
  O106     1.0000 0.87741  0.22084  0.47202  Biso   1.000  O 
  H262     1.0000 0.77872  0.13051  0.50000  Biso   1.000  H 
  O107     1.0000 0.67046  0.09530  0.50000  Biso   1.000  O 
  C216     1.0000 0.65360  0.15360  0.50000  Biso   1.000  C 
  O108     1.0000 0.59529  0.17046  0.50000  Biso   1.000  O 
  C217     1.0000 0.63765  0.23612  0.39342  Biso   1.000  C 
  C218     1.0000 0.70358  0.22790  0.36315  Biso   1.000  C 
  H263     1.0000 0.61783  0.18633  0.39759  Biso   1.000  H 
  H264     1.0000 0.60446  0.25598  0.36251  Biso   1.000  H 
  H265     1.0000 0.74081  0.25395  0.39124  Biso   1.000  H 
  C219     1.0000 0.70474  0.25760  0.29786  Biso   1.000  C 
  H266     1.0000 0.71366  0.17575  0.35790  Biso   1.000  H 
  H267     1.0000 0.75633  0.25749  0.28846  Biso   1.000  H 
  H268     1.0000 0.69546  0.30893  0.29542  Biso   1.000  H 
  C220     1.0000 0.65517  0.22622  0.25116  Biso   1.000  C 
  C221     1.0000 0.87092  0.20264  0.40814  Biso   1.000  C 
  C222     1.0000 0.90010  0.13539  0.40565  Biso   1.000  C 
  H269     1.0000 0.89903  0.23806  0.37864  Biso   1.000  H 
  H270     1.0000 0.82263  0.19863  0.38719  Biso   1.000  H 
  H271     1.0000 0.88159  0.11171  0.36333  Biso   1.000  H 
  C223     1.0000 0.88219  0.08984  0.45655  Biso   1.000  C 
  H272     1.0000 0.95076  0.13527  0.40371  Biso   1.000  H 
  H273     1.0000 0.87458  0.11509  0.49630  Biso   1.000  H 
  H274     1.0000 0.83828  0.07505  0.44185  Biso   1.000  H 
  C224     1.0000 0.93049  0.03498  0.46978  Biso   1.000  C 
  H275     1.0000 0.91984  0.99108  0.44593  Biso   1.000  H 
  H276     1.0000 0.97834  0.05035  0.45345  Biso   1.000  H 
  H277     1.0000 0.93582  0.02112  0.51873  Biso   1.000  H 
  H278     1.0000 0.61236  0.25268  0.25867  Biso   1.000  H 
  H279     1.0000 0.64330  0.17668  0.26136  Biso   1.000  H 
  H280     1.0000 0.66343  0.23323  0.19835  Biso   1.000  H 
  C225     1.0000 0.34640  0.84640  0.50000  Biso   1.000  C 
  O109     1.0000 0.40471  0.82954  0.50000  Biso   1.000  O 
  O110     1.0000 0.32954  0.90471  0.50000  Biso   1.000  O 
  C226     1.0000 0.29500  0.79500  0.50000  Biso   1.000  C 
  C227     1.0000 0.23249  0.81563  0.50000  Biso   1.000  C 
  H281     1.0000 0.22128  0.86954  0.50000  Biso   1.000  H 
  O111     1.0000 0.12431  0.77956  0.46625  Biso   1.000  O 
  C228     1.0000 0.18442  0.76752  0.50000  Biso   1.000  C 
  C229     1.0000 0.20500  0.70501  0.50000  Biso   1.000  C 
  C230     1.0000 0.26751  0.68442  0.50000  Biso   1.000  C 
  C231     1.0000 0.31563  0.73249  0.50000  Biso   1.000  C 
  O112     1.0000 0.37858  0.72106  0.47864  Biso   1.000  O 
  H282     1.0000 0.27872  0.63051  0.50000  Biso   1.000  H 
  O113     1.0000 0.17046  0.59530  0.50000  Biso   1.000  O 
  C232     1.0000 0.15360  0.65361  0.50000  Biso   1.000  C 
  O114     1.0000 0.09529  0.67047  0.50000  Biso   1.000  O 
  C233     1.0000 0.12375  0.75261  0.40138  Biso   1.000  C 
  C234     1.0000 0.18662  0.72844  0.36407  Biso   1.000  C 
  H283     1.0000 0.09381  0.71266  0.40381  Biso   1.000  H 
  H284     1.0000 0.09973  0.78484  0.36840  Biso   1.000  H 
  H285     1.0000 0.19579  0.74440  0.31510  Biso   1.000  H 
  C235     1.0000 0.19313  0.65477  0.35637  Biso   1.000  C 
  H286     1.0000 0.23035  0.74241  0.38789  Biso   1.000  H 
  H287     1.0000 0.20593  0.62644  0.39924  Biso   1.000  H 
  H288     1.0000 0.23203  0.64146  0.32251  Biso   1.000  H 
  C236     1.0000 0.13133  0.63389  0.32715  Biso   1.000  C 
  C237     1.0000 0.37575  0.74215  0.41396  Biso   1.000  C 
  C238     1.0000 0.36633  0.68620  0.37401  Biso   1.000  C 
  H289     1.0000 0.41952  0.76547  0.40674  Biso   1.000  H 
  H290     1.0000 0.33861  0.77792  0.39719  Biso   1.000  H 
  H291     1.0000 0.31970  0.69554  0.34626  Biso   1.000  H 
  C239     1.0000 0.35811  0.62230  0.40722  Biso   1.000  C 
  H292     1.0000 0.40547  0.68805  0.34822  Biso   1.000  H 
  H293     1.0000 0.36852  0.62347  0.45700  Biso   1.000  H 
  H294     1.0000 0.30854  0.61202  0.40162  Biso   1.000  H 
  C240     1.0000 0.40623  0.57337  0.38743  Biso   1.000  C 
  H295     1.0000 0.39645  0.56732  0.33850  Biso   1.000  H 
  H296     1.0000 0.45337  0.59320  0.39272  Biso   1.000  H 
  H297     1.0000 0.40745  0.52609  0.40885  Biso   1.000  H 
  H298     1.0000 0.14132  0.60523  0.28674  Biso   1.000  H 
  H299     1.0000 0.10676  0.67361  0.30891  Biso   1.000  H 
  H300     1.0000 0.10448  0.60688  0.36294  Biso   1.000  H 
  C241     1.0000 0.34640  0.34640  0.00000  Biso   1.000  C 
  O115     1.0000 0.40471  0.32954  0.00000  Biso   1.000  O 
  O116     1.0000 0.32954  0.40471  0.00000  Biso   1.000  O 
  C242     1.0000 0.29500  0.29500  0.00000  Biso   1.000  C 
  C243     1.0000 0.23249  0.31563  0.00000  Biso   1.000  C 
  H301     1.0000 0.22128  0.36954  0.00000  Biso   1.000  H 
  O117     1.0000 0.12935  0.27636  0.95976  Biso   1.000  O 
  C244     1.0000 0.18442  0.26751  0.00000  Biso   1.000  C 
  C245     1.0000 0.20500  0.20500  0.00000  Biso   1.000  C 
  C246     1.0000 0.26751  0.18442  0.00000  Biso   1.000  C 
  C247     1.0000 0.31563  0.23249  0.00000  Biso   1.000  C 
  O118     1.0000 0.37257  0.21964  0.96232  Biso   1.000  O 
  H302     1.0000 0.27872  0.13051  0.00000  Biso   1.000  H 
  O119     1.0000 0.17046  0.09530  0.00000  Biso   1.000  O 
  C248     1.0000 0.15360  0.15360  0.00000  Biso   1.000  C 
  O120     1.0000 0.09529  0.17046  0.00000  Biso   1.000  O 
  C249     1.0000 0.12756  0.24689  0.89771  Biso   1.000  C 
  C250     1.0000 0.18417  0.22887  0.85787  Biso   1.000  C 
  H303     1.0000 0.10188  0.20278  0.90090  Biso   1.000  H 
  H304     1.0000 0.09904  0.27977  0.86964  Biso   1.000  H 
  H305     1.0000 0.21523  0.27301  0.85692  Biso   1.000  H 
  C251     1.0000 0.16037  0.20625  0.78990  Biso   1.000  C 
  H306     1.0000 0.20938  0.18928  0.88025  Biso   1.000  H 
  H307     1.0000 0.19648  0.21674  0.75910  Biso   1.000  H 
  H308     1.0000 0.11764  0.23199  0.77196  Biso   1.000  H 
  C252     1.0000 0.14746  0.13318  0.78849  Biso   1.000  C 
  C253     1.0000 0.35973  0.24693  0.90070  Biso   1.000  C 
  C254     1.0000 0.34328  0.19723  0.85207  Biso   1.000  C 
  H309     1.0000 0.40421  0.27215  0.88428  Biso   1.000  H 
  H310     1.0000 0.31973  0.28093  0.89205  Biso   1.000  H 
  H311     1.0000 0.29978  0.21278  0.82303  Biso   1.000  H 
  C255     1.0000 0.33269  0.13073  0.87996  Biso   1.000  C 
  H312     1.0000 0.38402  0.20000  0.82074  Biso   1.000  H 
  H313     1.0000 0.29743  0.12548  0.91200  Biso   1.000  H 
  H314     1.0000 0.31390  0.10528  0.84166  Biso   1.000  H 
  C256     1.0000 0.39930  0.10148  0.90077  Biso   1.000  C 
  H315     1.0000 0.40096  0.05044  0.88763  Biso   1.000  H 
  H316     1.0000 0.44042  0.12715  0.88193  Biso   1.000  H 
  H317     1.0000 0.40725  0.10528  0.95115  Biso   1.000  H 
  H318     1.0000 0.19182  0.11030  0.80487  Biso   1.000  H 
  H319     1.0000 0.13176  0.11178  0.74395  Biso   1.000  H 
  H320     1.0000 0.11249  0.12319  0.82587  Biso   1.000  H 
  C257     1.0000 0.00000  0.84640  0.15360  Biso   1.000  C 
  O121     1.0000 0.00000  0.90471  0.17046  Biso   1.000  O 
  O122     1.0000 0.00000  0.82954  0.09529  Biso   1.000  O 
  C258     1.0000 0.00000  0.79500  0.20500  Biso   1.000  C 
  C259     1.0000 0.00000  0.73249  0.18437  Biso   1.000  C 
  H321     1.0000 0.00000  0.72128  0.13046  Biso   1.000  H 
  O123     1.0000 0.03672  0.62631  0.21679  Biso   1.000  O 
  C260     1.0000 0.00000  0.68442  0.23249  Biso   1.000  C 
  C261     1.0000 0.00000  0.70500  0.29500  Biso   1.000  C 
  C262     1.0000 0.00000  0.76751  0.31558  Biso   1.000  C 
  C263     1.0000 0.00000  0.81563  0.26751  Biso   1.000  C 
  O124     1.0000 0.00709  0.88023  0.28432  Biso   1.000  O 
  H322     1.0000 0.00000  0.77872  0.36949  Biso   1.000  H 
  O125     1.0000 0.00000  0.67046  0.40470  Biso   1.000  O 
  C264     1.0000 0.00000  0.65360  0.34640  Biso   1.000  C 
  O126     1.0000 0.00000  0.59529  0.32954  Biso   1.000  O 
  C265     1.0000 0.99792  0.57727  0.18897  Biso   1.000  C 
  C266     1.0000 0.02026  0.51163  0.20945  Biso   1.000  C 
  H323     1.0000 0.94653  0.58258  0.20381  Biso   1.000  H 
  H324     1.0000 0.00214  0.57516  0.13739  Biso   1.000  H 
  H325     1.0000 0.04847  0.52667  0.24711  Biso   1.000  H 
  C267     1.0000 0.05708  0.46583  0.15813  Biso   1.000  C 
  H326     1.0000 0.97884  0.49175  0.23308  Biso   1.000  H 
  H327     1.0000 0.02375  0.44496  0.12958  Biso   1.000  H 
  H328     1.0000 0.08390  0.49950  0.12717  Biso   1.000  H 
  C268     1.0000 0.09964  0.40471  0.18782  Biso   1.000  C 
  C269     1.0000 0.95311  0.91860  0.28553  Biso   1.000  C 
  C270     1.0000 0.98762  0.98394  0.27756  Biso   1.000  C 
  H329     1.0000 0.92585  0.91359  0.33162  Biso   1.000  H 
  H330     1.0000 0.91893  0.90813  0.24575  Biso   1.000  H 
  H331     1.0000 0.03562  0.97839  0.25786  Biso   1.000  H 
  C271     1.0000 0.99184  0.01979  0.33975  Biso   1.000  C 
  H332     1.0000 0.96394  0.02041  0.24941  Biso   1.000  H 
  H333     1.0000 0.94583  0.04124  0.34524  Biso   1.000  H 
  H334     1.0000 0.99520  0.98706  0.37795  Biso   1.000  H 
  C272     1.0000 0.04445  0.07046  0.34376  Biso   1.000  C 
  H335     1.0000 0.07515  0.07447  0.30050  Biso   1.000  H 
  H336     1.0000 0.07009  0.05348  0.38514  Biso   1.000  H 
  H337     1.0000 0.03062  0.11797  0.35641  Biso   1.000  H 
  H338     1.0000 0.09680  0.40562  0.24179  Biso   1.000  H 
  H339     1.0000 0.15065  0.40739  0.17575  Biso   1.000  H 
  H340     1.0000 0.08926  0.35584  0.17390  Biso   1.000  H 
  C273     1.0000 0.00000  0.34640  0.65360  Biso   1.000  C 
  O127     1.0000 0.00000  0.40471  0.67046  Biso   1.000  O 
  O128     1.0000 0.00000  0.32954  0.59529  Biso   1.000  O 
  C274     1.0000 0.00000  0.29500  0.70500  Biso   1.000  C 
  C275     1.0000 0.00000  0.23249  0.68437  Biso   1.000  C 
  H341     1.0000 0.00000  0.22128  0.63046  Biso   1.000  H 
  O129     1.0000 0.02021  0.12206  0.71565  Biso   1.000  O 
  C276     1.0000 0.00000  0.18442  0.73248  Biso   1.000  C 
  C277     1.0000 0.00000  0.20500  0.79499  Biso   1.000  C 
  C278     1.0000 0.00000  0.26751  0.81558  Biso   1.000  C 
  C279     1.0000 0.00000  0.31563  0.76751  Biso   1.000  C 
  O130     1.0000 0.01471  0.38280  0.78403  Biso   1.000  O 
  H342     1.0000 0.00000  0.27872  0.86949  Biso   1.000  H 
  O131     1.0000 0.00000  0.17046  0.90470  Biso   1.000  O 
  C280     1.0000 0.00000  0.15360  0.84639  Biso   1.000  C 
  O132     1.0000 0.00000  0.09529  0.82953  Biso   1.000  O 
  C281     1.0000 0.96837  0.07778  0.71364  Biso   1.000  C 
  C282     1.0000 0.00485  0.01595  0.70623  Biso   1.000  C 
  H343     1.0000 0.92993  0.08521  0.75052  Biso   1.000  H 
  H344     1.0000 0.94143  0.07549  0.67140  Biso   1.000  H 
  H345     1.0000 0.03067  0.00245  0.74867  Biso   1.000  H 
  C283     1.0000 0.04227  0.02326  0.64148  Biso   1.000  C 
  H346     1.0000 0.96981  0.98045  0.70000  Biso   1.000  H 
  H347     1.0000 0.00800  0.03889  0.60586  Biso   1.000  H 
  H348     1.0000 0.08277  0.05782  0.64178  Biso   1.000  H 
  C284     1.0000 0.06047  0.96028  0.61701  Biso   1.000  C 
  C285     1.0000 0.96676  0.43174  0.79378  Biso   1.000  C 
  C286     1.0000 0.99815  0.50211  0.78041  Biso   1.000  C 
  H349     1.0000 0.94406  0.42908  0.84207  Biso   1.000  H 
  H350     1.0000 0.92861  0.42140  0.75802  Biso   1.000  H 
  H351     1.0000 0.02436  0.49403  0.73937  Biso   1.000  H 
  C287     1.0000 0.03921  0.55273  0.82402  Biso   1.000  C 
  H352     1.0000 0.95860  0.53038  0.76579  Biso   1.000  H 
  H353     1.0000 0.00868  0.58248  0.85124  Biso   1.000  H 
  H354     1.0000 0.06333  0.53074  0.85901  Biso   1.000  H 
  C288     1.0000 0.09192  0.60304  0.79821  Biso   1.000  C 
  H355     1.0000 0.08496  0.60876  0.74594  Biso   1.000  H 
  H356     1.0000 0.14284  0.59615  0.80326  Biso   1.000  H 
  H357     1.0000 0.08754  0.64867  0.82502  Biso   1.000  H 
  H358     1.0000 0.09910  0.93811  0.64570  Biso   1.000  H 
  H359     1.0000 0.07371  0.96642  0.56555  Biso   1.000  H 
  H360     1.0000 0.01657  0.93080  0.61976  Biso   1.000  H 
  C289     1.0000 0.50000  0.84640  0.65360  Biso   1.000  C 
  O133     1.0000 0.50000  0.90471  0.67046  Biso   1.000  O 
  O134     1.0000 0.50000  0.82954  0.59529  Biso   1.000  O 
  C290     1.0000 0.50000  0.79500  0.70500  Biso   1.000  C 
  C291     1.0000 0.50000  0.73249  0.68437  Biso   1.000  C 
  H361     1.0000 0.50000  0.72128  0.63046  Biso   1.000  H 
  O135     1.0000 0.51494  0.62102  0.71422  Biso   1.000  O 
  C292     1.0000 0.50000  0.68442  0.73248  Biso   1.000  C 
  C293     1.0000 0.50000  0.70500  0.79499  Biso   1.000  C 
  C294     1.0000 0.50000  0.76751  0.81558  Biso   1.000  C 
  C295     1.0000 0.50000  0.81563  0.76751  Biso   1.000  C 
  O136     1.0000 0.51371  0.88253  0.78273  Biso   1.000  O 
  H362     1.0000 0.50000  0.77872  0.86949  Biso   1.000  H 
  O137     1.0000 0.50000  0.67046  0.90470  Biso   1.000  O 
  C296     1.0000 0.50000  0.65360  0.84639  Biso   1.000  C 
  O138     1.0000 0.50000  0.59529  0.82953  Biso   1.000  O 
  C297     1.0000 0.46296  0.57870  0.71495  Biso   1.000  C 
  C298     1.0000 0.50183  0.51906  0.71201  Biso   1.000  C 
  H363     1.0000 0.42834  0.58462  0.75579  Biso   1.000  H 
  H364     1.0000 0.43241  0.57465  0.67390  Biso   1.000  H 
  H365     1.0000 0.53691  0.52237  0.74856  Biso   1.000  H 
  C299     1.0000 0.54278  0.51822  0.64866  Biso   1.000  C 
  H366     1.0000 0.46983  0.48317  0.72649  Biso   1.000  H 
  H367     1.0000 0.58556  0.55061  0.65030  Biso   1.000  H 
  H368     1.0000 0.51419  0.53374  0.60740  Biso   1.000  H 
  C300     1.0000 0.56378  0.45083  0.63602  Biso   1.000  C 
  C301     1.0000 0.46243  0.92877  0.78883  Biso   1.000  C 
  C302     1.0000 0.49783  0.99542  0.78179  Biso   1.000  C 
  H369     1.0000 0.43095  0.92972  0.83225  Biso   1.000  H 
  H370     1.0000 0.42910  0.92185  0.74858  Biso   1.000  H 
  H371     1.0000 0.53437  0.98060  0.74953  Biso   1.000  H 
  C303     1.0000 0.53737  0.03631  0.83165  Biso   1.000  C 
  H372     1.0000 0.46817  0.02462  0.75547  Biso   1.000  H 
  H373     1.0000 0.50380  0.04967  0.87012  Biso   1.000  H 
  H374     1.0000 0.56952  0.00369  0.84997  Biso   1.000  H 
  C304     1.0000 0.58381  0.09464  0.81410  Biso   1.000  C 
  H375     1.0000 0.58059  0.10259  0.76235  Biso   1.000  H 
  H376     1.0000 0.63403  0.09078  0.82280  Biso   1.000  H 
  H377     1.0000 0.56990  0.13728  0.84163  Biso   1.000  H 
  H378     1.0000 0.59072  0.42345  0.67327  Biso   1.000  H 
  H379     1.0000 0.58459  0.44166  0.59089  Biso   1.000  H 
  H380     1.0000 0.52068  0.42979  0.63058  Biso   1.000  H 
  C305     1.0000 0.50000  0.34640  0.15360  Biso   1.000  C 
  O139     1.0000 0.50000  0.40471  0.17046  Biso   1.000  O 
  O140     1.0000 0.50000  0.32954  0.09529  Biso   1.000  O 
  C306     1.0000 0.50000  0.29500  0.20500  Biso   1.000  C 
  C307     1.0000 0.50000  0.23249  0.18437  Biso   1.000  C 
  H381     1.0000 0.50000  0.22128  0.13046  Biso   1.000  H 
  O141     1.0000 0.53006  0.12452  0.21484  Biso   1.000  O 
  C308     1.0000 0.50000  0.18442  0.23249  Biso   1.000  C 
  C309     1.0000 0.50000  0.20500  0.29500  Biso   1.000  C 
  C310     1.0000 0.50000  0.26751  0.31558  Biso   1.000  C 
  C311     1.0000 0.50000  0.31563  0.26751  Biso   1.000  C 
  O142     1.0000 0.51093  0.38071  0.28383  Biso   1.000  O 
  H382     1.0000 0.50000  0.27872  0.36949  Biso   1.000  H 
  O143     1.0000 0.50000  0.17046  0.40470  Biso   1.000  O 
  C312     1.0000 0.50000  0.15360  0.34640  Biso   1.000  C 
  O144     1.0000 0.50000  0.09529  0.32954  Biso   1.000  O 
  C313     1.0000 0.48848  0.07502  0.19298  Biso   1.000  C 
  C314     1.0000 0.51753  0.00953  0.22071  Biso   1.000  C 
  H383     1.0000 0.43746  0.08254  0.20794  Biso   1.000  H 
  H384     1.0000 0.49193  0.07638  0.14144  Biso   1.000  H 
  H385     1.0000 0.55035  0.03251  0.24969  Biso   1.000  H 
  C315     1.0000 0.55639  0.95808  0.17282  Biso   1.000  C 
  H386     1.0000 0.48472  0.98587  0.25319  Biso   1.000  H 
  H387     1.0000 0.52779  0.93198  0.14459  Biso   1.000  H 
  H388     1.0000 0.58207  0.99099  0.13988  Biso   1.000  H 
  C316     1.0000 0.60550  0.90206  0.19845  Biso   1.000  C 
  C317     1.0000 0.45714  0.42065  0.29193  Biso   1.000  C 
  C318     1.0000 0.48986  0.48754  0.28731  Biso   1.000  C 
  H389     1.0000 0.42931  0.41267  0.33722  Biso   1.000  H 
  H390     1.0000 0.42218  0.41246  0.25219  Biso   1.000  H 
  H391     1.0000 0.52802  0.48178  0.25180  Biso   1.000  H 
  C319     1.0000 0.52779  0.51328  0.34390  Biso   1.000  C 
  H392     1.0000 0.45990  0.52499  0.26812  Biso   1.000  H 
  H393     1.0000 0.50407  0.50629  0.39057  Biso   1.000  H 
  H394     1.0000 0.56829  0.48631  0.34859  Biso   1.000  H 
  C320     1.0000 0.56058  0.57804  0.32837  Biso   1.000  C 
  H395     1.0000 0.55624  0.58495  0.27588  Biso   1.000  H 
  H396     1.0000 0.61269  0.57958  0.33806  Biso   1.000  H 
  H397     1.0000 0.53934  0.61826  0.35460  Biso   1.000  H 
  H398     1.0000 0.61665  0.90466  0.25098  Biso   1.000  H 
  H399     1.0000 0.65000  0.90728  0.16927  Biso   1.000  H 
  H400     1.0000 0.59313  0.85278  0.18969  Biso   1.000  H 
  C321     1.0000 0.00000  0.84640  0.84640  Biso   1.000  C 
  O145     1.0000 0.00000  0.90471  0.82954  Biso   1.000  O 
  O146     1.0000 0.00000  0.82954  0.90471  Biso   1.000  O 
  C322     1.0000 0.00000  0.79500  0.79500  Biso   1.000  C 
  C323     1.0000 0.00000  0.73249  0.81563  Biso   1.000  C 
  H401     1.0000 0.00000  0.72128  0.86954  Biso   1.000  H 
  O147     1.0000 0.94863  0.63368  0.77416  Biso   1.000  O 
  C324     1.0000 0.00000  0.68442  0.76752  Biso   1.000  C 
  C325     1.0000 0.00000  0.70500  0.70501  Biso   1.000  C 
  C326     1.0000 0.00000  0.76751  0.68442  Biso   1.000  C 
  C327     1.0000 0.00000  0.81563  0.73249  Biso   1.000  C 
  O148     1.0000 0.98155  0.87872  0.71733  Biso   1.000  O 
  H402     1.0000 0.00000  0.77872  0.63051  Biso   1.000  H 
  O149     1.0000 0.00000  0.67046  0.59530  Biso   1.000  O 
  C328     1.0000 0.00000  0.65360  0.65361  Biso   1.000  C 
  O150     1.0000 0.00000  0.59529  0.67047  Biso   1.000  O 
  C329     1.0000 0.89046  0.63339  0.73096  Biso   1.000  C 
  C330     1.0000 0.86014  0.69758  0.69711  Biso   1.000  C 
  H403     1.0000 0.89797  0.60313  0.68894  Biso   1.000  H 
  H404     1.0000 0.85216  0.60966  0.75374  Biso   1.000  H 
  H405     1.0000 0.84138  0.73996  0.72493  Biso   1.000  H 
  C331     1.0000 0.80926  0.67878  0.64610  Biso   1.000  C 
  H406     1.0000 0.89494  0.71438  0.66425  Biso   1.000  H 
  H407     1.0000 0.82360  0.63257  0.62177  Biso   1.000  H 
  H408     1.0000 0.80172  0.71794  0.61271  Biso   1.000  H 
  C332     1.0000 0.74604  0.65754  0.67560  Biso   1.000  C 
  C333     1.0000 0.91576  0.87883  0.73828  Biso   1.000  C 
  C334     1.0000 0.87409  0.88586  0.68410  Biso   1.000  C 
  H409     1.0000 0.91203  0.92086  0.76592  Biso   1.000  H 
  H410     1.0000 0.89640  0.84022  0.76863  Biso   1.000  H 
  H411     1.0000 0.82825  0.88521  0.70638  Biso   1.000  H 
  C335     1.0000 0.88338  0.85336  0.62104  Biso   1.000  C 
  H412     1.0000 0.88567  0.93206  0.66830  Biso   1.000  H 
  H413     1.0000 0.91851  0.82015  0.62681  Biso   1.000  H 
  H414     1.0000 0.84308  0.82340  0.61238  Biso   1.000  H 
  C336     1.0000 0.88905  0.90427  0.56348  Biso   1.000  C 
  H415     1.0000 0.84207  0.92076  0.55776  Biso   1.000  H 
  H416     1.0000 0.91944  0.94434  0.57870  Biso   1.000  H 
  H417     1.0000 0.90471  0.89008  0.51715  Biso   1.000  H 
  H418     1.0000 0.71422  0.64323  0.63176  Biso   1.000  H 
  H419     1.0000 0.72289  0.69964  0.69931  Biso   1.000  H 
  H420     1.0000 0.74751  0.61805  0.71403  Biso   1.000  H 
  C337     1.0000 0.00000  0.34640  0.34640  Biso   1.000  C 
  O151     1.0000 0.00000  0.40471  0.32954  Biso   1.000  O 
  O152     1.0000 0.00000  0.32954  0.40471  Biso   1.000  O 
  C338     1.0000 0.00000  0.29500  0.29500  Biso   1.000  C 
  C339     1.0000 0.00000  0.23249  0.31563  Biso   1.000  C 
  H421     1.0000 0.00000  0.22128  0.36954  Biso   1.000  H 
  O153     1.0000 0.95287  0.13279  0.27617  Biso   1.000  O 
  C340     1.0000 0.00000  0.18442  0.26751  Biso   1.000  C 
  C341     1.0000 0.00000  0.20500  0.20500  Biso   1.000  C 
  C342     1.0000 0.00000  0.26751  0.18442  Biso   1.000  C 
  C343     1.0000 0.00000  0.31563  0.23249  Biso   1.000  C 
  O154     1.0000 0.98861  0.38079  0.21565  Biso   1.000  O 
  H422     1.0000 0.00000  0.27872  0.13051  Biso   1.000  H 
  O155     1.0000 0.00000  0.17046  0.09530  Biso   1.000  O 
  C344     1.0000 0.00000  0.15360  0.15360  Biso   1.000  C 
  O156     1.0000 0.00000  0.09529  0.17046  Biso   1.000  O 
  C345     1.0000 0.88796  0.15239  0.25761  Biso   1.000  C 
  C346     1.0000 0.86909  0.14796  0.18730  Biso   1.000  C 
  H423     1.0000 0.85579  0.11658  0.27500  Biso   1.000  H 
  H424     1.0000 0.87330  0.19825  0.28271  Biso   1.000  H 
  H425     1.0000 0.89392  0.18290  0.16149  Biso   1.000  H 
  C347     1.0000 0.79843  0.14429  0.16041  Biso   1.000  C 
  H426     1.0000 0.89102  0.10201  0.17144  Biso   1.000  H 
  H427     1.0000 0.79337  0.10340  0.12936  Biso   1.000  H 
  H428     1.0000 0.78355  0.18227  0.12934  Biso   1.000  H 
  C348     1.0000 0.75260  0.13879  0.21263  Biso   1.000  C 
  C349     1.0000 0.92527  0.39212  0.21287  Biso   1.000  C 
  C350     1.0000 0.91103  0.42871  0.14813  Biso   1.000  C 
  H429     1.0000 0.91082  0.42114  0.25426  Biso   1.000  H 
  H430     1.0000 0.89474  0.34825  0.22128  Biso   1.000  H 
  H431     1.0000 0.86289  0.42046  0.15218  Biso   1.000  H 
  C351     1.0000 0.92459  0.41491  0.07774  Biso   1.000  C 
  H432     1.0000 0.91978  0.47873  0.14954  Biso   1.000  H 
  H433     1.0000 0.94740  0.36895  0.07997  Biso   1.000  H 
  H434     1.0000 0.88103  0.40645  0.04941  Biso   1.000  H 
  C352     1.0000 0.96135  0.47175  0.04003  Biso   1.000  C 
  H435     1.0000 0.94031  0.47537  0.99135  Biso   1.000  H 
  H436     1.0000 0.95771  0.51976  0.06289  Biso   1.000  H 
  H437     1.0000 0.01319  0.46293  0.03333  Biso   1.000  H 
  H438     1.0000 0.75469  0.10098  0.24933  Biso   1.000  H 
  H439     1.0000 0.70393  0.13997  0.18904  Biso   1.000  H 
  H440     1.0000 0.76078  0.17893  0.23944  Biso   1.000  H 
  C353     1.0000 0.50000  0.84640  0.34640  Biso   1.000  C 
  O157     1.0000 0.50000  0.90471  0.32954  Biso   1.000  O 
  O158     1.0000 0.50000  0.82954  0.40471  Biso   1.000  O 
  C354     1.0000 0.50000  0.79500  0.29500  Biso   1.000  C 
  C355     1.0000 0.50000  0.73249  0.31563  Biso   1.000  C 
  H441     1.0000 0.50000  0.72128  0.36954  Biso   1.000  H 
  O159     1.0000 0.44337  0.63527  0.27105  Biso   1.000  O 
  C356     1.0000 0.50000  0.68442  0.26751  Biso   1.000  C 
  C357     1.0000 0.50000  0.70500  0.20500  Biso   1.000  C 
  C358     1.0000 0.50000  0.76751  0.18442  Biso   1.000  C 
  C359     1.0000 0.50000  0.81563  0.23249  Biso   1.000  C 
  O160     1.0000 0.47683  0.87826  0.21707  Biso   1.000  O 
  H442     1.0000 0.50000  0.77872  0.13051  Biso   1.000  H 
  O161     1.0000 0.50000  0.67046  0.09530  Biso   1.000  O 
  C360     1.0000 0.50000  0.65360  0.15360  Biso   1.000  C 
  O162     1.0000 0.50000  0.59529  0.17046  Biso   1.000  O 
  C361     1.0000 0.38045  0.66166  0.24405  Biso   1.000  C 
  C362     1.0000 0.35997  0.67481  0.16883  Biso   1.000  C 
  H443     1.0000 0.34237  0.63026  0.26499  Biso   1.000  H 
  H444     1.0000 0.37214  0.71041  0.26004  Biso   1.000  H 
  H445     1.0000 0.38398  0.71819  0.14892  Biso   1.000  H 
  C363     1.0000 0.28774  0.68449  0.14592  Biso   1.000  C 
  H446     1.0000 0.37748  0.63090  0.14113  Biso   1.000  H 
  H447     1.0000 0.28289  0.64766  0.10956  Biso   1.000  H 
  H448     1.0000 0.27493  0.73666  0.13141  Biso   1.000  H 
  C364     1.0000 0.23498  0.66342  0.19065  Biso   1.000  C 
  C365     1.0000 0.41497  0.87592  0.20030  Biso   1.000  C 
  C366     1.0000 0.40566  0.92618  0.15130  Biso   1.000  C 
  H449     1.0000 0.38539  0.88609  0.24234  Biso   1.000  H 
  H450     1.0000 0.39494  0.83008  0.18036  Biso   1.000  H 
  H451     1.0000 0.36192  0.93032  0.15363  Biso   1.000  H 
  C367     1.0000 0.42186  0.92520  0.08510  Biso   1.000  C 
  H452     1.0000 0.43131  0.96431  0.17143  Biso   1.000  H 
  H453     1.0000 0.46159  0.90125  0.08681  Biso   1.000  H 
  H454     1.0000 0.38221  0.89857  0.05990  Biso   1.000  H 
  C368     1.0000 0.44222  0.99337  0.06805  Biso   1.000  C 
  H455     1.0000 0.49006  0.99689  0.08031  Biso   1.000  H 
  H456     1.0000 0.43954  0.00571  0.01877  Biso   1.000  H 
  H457     1.0000 0.41743  0.02931  0.09631  Biso   1.000  H 
  H458     1.0000 0.22898  0.69960  0.23276  Biso   1.000  H 
  H459     1.0000 0.25240  0.62112  0.21558  Biso   1.000  H 
  H460     1.0000 0.18930  0.65411  0.16833  Biso   1.000  H 
  C369     1.0000 0.50000  0.34640  0.84640  Biso   1.000  C 
  O163     1.0000 0.50000  0.40471  0.82954  Biso   1.000  O 
  O164     1.0000 0.50000  0.32954  0.90471  Biso   1.000  O 
  C370     1.0000 0.50000  0.29500  0.79500  Biso   1.000  C 
  C371     1.0000 0.50000  0.23249  0.81563  Biso   1.000  C 
  H461     1.0000 0.50000  0.22128  0.86954  Biso   1.000  H 
  O165     1.0000 0.46280  0.12738  0.77944  Biso   1.000  O 
  C372     1.0000 0.50000  0.18442  0.76752  Biso   1.000  C 
  C373     1.0000 0.50000  0.20500  0.70501  Biso   1.000  C 
  C374     1.0000 0.50000  0.26751  0.68442  Biso   1.000  C 
  C375     1.0000 0.50000  0.31563  0.73249  Biso   1.000  C 
  O166     1.0000 0.48694  0.37931  0.71381  Biso   1.000  O 
  H462     1.0000 0.50000  0.27872  0.63051  Biso   1.000  H 
  O167     1.0000 0.50000  0.17046  0.59530  Biso   1.000  O 
  C376     1.0000 0.50000  0.15360  0.65361  Biso   1.000  C 
  O168     1.0000 0.50000  0.09529  0.67047  Biso   1.000  O 
  C377     1.0000 0.40228  0.11989  0.74600  Biso   1.000  C 
  C378     1.0000 0.36259  0.16277  0.70252  Biso   1.000  C 
  H463     1.0000 0.40804  0.08524  0.71552  Biso   1.000  H 
  H464     1.0000 0.37499  0.09931  0.77975  Biso   1.000  H 
  H465     1.0000 0.37058  0.21414  0.71613  Biso   1.000  H 
  C379     1.0000 0.28926  0.14162  0.70480  Biso   1.000  C 
  H466     1.0000 0.37908  0.15433  0.65097  Biso   1.000  H 
  H467     1.0000 0.27402  0.18311  0.72630  Biso   1.000  H 
  H468     1.0000 0.27632  0.10595  0.73993  Biso   1.000  H 
  C380     1.0000 0.24659  0.14326  0.64577  Biso   1.000  C 
  C381     1.0000 0.42211  0.38144  0.69851  Biso   1.000  C 
  C382     1.0000 0.40949  0.42464  0.63915  Biso   1.000  C 
  H469     1.0000 0.40067  0.40298  0.74241  Biso   1.000  H 
  H470     1.0000 0.39884  0.33229  0.69232  Biso   1.000  H 
  H471     1.0000 0.36210  0.42171  0.64426  Biso   1.000  H 
  C383     1.0000 0.41764  0.39794  0.57242  Biso   1.000  C 
  H472     1.0000 0.42157  0.47565  0.63987  Biso   1.000  H 
  H473     1.0000 0.43601  0.35012  0.58099  Biso   1.000  H 
  H474     1.0000 0.37057  0.39226  0.55041  Biso   1.000  H 
  C384     1.0000 0.45550  0.44194  0.52355  Biso   1.000  C 
  H475     1.0000 0.43464  0.43558  0.47501  Biso   1.000  H 
  H476     1.0000 0.45389  0.49309  0.53717  Biso   1.000  H 
  H477     1.0000 0.50608  0.43198  0.51941  Biso   1.000  H 
  H478     1.0000 0.27240  0.11606  0.60591  Biso   1.000  H 
  H479     1.0000 0.22839  0.18642  0.63132  Biso   1.000  H 
  H480     1.0000 0.20275  0.11964  0.65761  Biso   1.000  H 
