data_image0
_cell_length_a       26.896
_cell_length_b       26.896
_cell_length_c       26.896
_cell_angle_alpha    90
_cell_angle_beta     90
_cell_angle_gamma    90

_symmetry_space_group_name_H-M    "P 1"
_symmetry_int_tables_number       1

loop_
  _symmetry_equiv_pos_as_xyz
  'x, y, z'

loop_
  _atom_site_label
  _atom_site_occupancy
  _atom_site_fract_x
  _atom_site_fract_y
  _atom_site_fract_z
  _atom_site_thermal_displace_type
  _atom_site_B_iso_or_equiv
  _atom_site_type_symbol
  Zr1      1.0000 0.09204  0.00000  0.00000  Biso   1.000  Zr
  Zr2      1.0000 0.90796  0.00000  0.00000  Biso   1.000  Zr
  Zr3      1.0000 0.00000  0.09204  0.00000  Biso   1.000  Zr
  Zr4      1.0000 0.00000  0.90796  0.00000  Biso   1.000  Zr
  Zr5      1.0000 0.00000  0.00000  0.09204  Biso   1.000  Zr
  Zr6      1.0000 0.00000  0.00000  0.90796  Biso   1.000  Zr
  Zr7      1.0000 0.09204  0.50000  0.50000  Biso   1.000  Zr
  Zr8      1.0000 0.90796  0.50000  0.50000  Biso   1.000  Zr
  Zr9      1.0000 0.00000  0.59204  0.50000  Biso   1.000  Zr
  Zr10     1.0000 0.00000  0.40796  0.50000  Biso   1.000  Zr
  Zr11     1.0000 0.00000  0.50000  0.59204  Biso   1.000  Zr
  Zr12     1.0000 0.00000  0.50000  0.40796  Biso   1.000  Zr
  Zr13     1.0000 0.59204  0.00000  0.50000  Biso   1.000  Zr
  Zr14     1.0000 0.40796  0.00000  0.50000  Biso   1.000  Zr
  Zr15     1.0000 0.50000  0.09204  0.50000  Biso   1.000  Zr
  Zr16     1.0000 0.50000  0.90796  0.50000  Biso   1.000  Zr
  Zr17     1.0000 0.50000  0.00000  0.59204  Biso   1.000  Zr
  Zr18     1.0000 0.50000  0.00000  0.40796  Biso   1.000  Zr
  Zr19     1.0000 0.59204  0.50000  0.00000  Biso   1.000  Zr
  Zr20     1.0000 0.40796  0.50000  0.00000  Biso   1.000  Zr
  Zr21     1.0000 0.50000  0.59204  0.00000  Biso   1.000  Zr
  Zr22     1.0000 0.50000  0.40796  0.00000  Biso   1.000  Zr
  Zr23     1.0000 0.50000  0.50000  0.09204  Biso   1.000  Zr
  Zr24     1.0000 0.50000  0.50000  0.90796  Biso   1.000  Zr
  O1       1.0000 0.04540  0.04540  0.04540  Biso   1.000  O 
  O2       1.0000 0.95460  0.95460  0.04540  Biso   1.000  O 
  O3       1.0000 0.95460  0.04540  0.95460  Biso   1.000  O 
  O4       1.0000 0.04540  0.95460  0.95460  Biso   1.000  O 
  O5       1.0000 0.04540  0.04540  0.95460  Biso   1.000  O 
  O6       1.0000 0.95460  0.95460  0.95460  Biso   1.000  O 
  O7       1.0000 0.04540  0.95460  0.04540  Biso   1.000  O 
  O8       1.0000 0.95460  0.04540  0.04540  Biso   1.000  O 
  O9       1.0000 0.04540  0.54540  0.54540  Biso   1.000  O 
  O10      1.0000 0.95460  0.45460  0.54540  Biso   1.000  O 
  O11      1.0000 0.95460  0.54540  0.45460  Biso   1.000  O 
  O12      1.0000 0.04540  0.45460  0.45460  Biso   1.000  O 
  O13      1.0000 0.04540  0.54540  0.45460  Biso   1.000  O 
  O14      1.0000 0.95460  0.45460  0.45460  Biso   1.000  O 
  O15      1.0000 0.04540  0.45460  0.54540  Biso   1.000  O 
  O16      1.0000 0.95460  0.54540  0.54540  Biso   1.000  O 
  O17      1.0000 0.54540  0.04540  0.54540  Biso   1.000  O 
  O18      1.0000 0.45460  0.95460  0.54540  Biso   1.000  O 
  O19      1.0000 0.45460  0.04540  0.45460  Biso   1.000  O 
  O20      1.0000 0.54540  0.95460  0.45460  Biso   1.000  O 
  O21      1.0000 0.54540  0.04540  0.45460  Biso   1.000  O 
  O22      1.0000 0.45460  0.95460  0.45460  Biso   1.000  O 
  O23      1.0000 0.54540  0.95460  0.54540  Biso   1.000  O 
  O24      1.0000 0.45460  0.04540  0.54540  Biso   1.000  O 
  O25      1.0000 0.54540  0.54540  0.04540  Biso   1.000  O 
  O26      1.0000 0.45460  0.45460  0.04540  Biso   1.000  O 
  O27      1.0000 0.45460  0.54540  0.95460  Biso   1.000  O 
  O28      1.0000 0.54540  0.45460  0.95460  Biso   1.000  O 
  O29      1.0000 0.54540  0.54540  0.95460  Biso   1.000  O 
  O30      1.0000 0.45460  0.45460  0.95460  Biso   1.000  O 
  O31      1.0000 0.54540  0.45460  0.04540  Biso   1.000  O 
  O32      1.0000 0.45460  0.54540  0.04540  Biso   1.000  O 
  O33      1.0000 0.13260  0.00000  0.07190  Biso   1.000  O 
  C1       1.0000 0.11720  0.00000  0.11720  Biso   1.000  C 
  O34      1.0000 0.07190  0.00000  0.13260  Biso   1.000  O 
  C2       1.0000 0.15650  0.00000  0.15650  Biso   1.000  C 
  C3       1.0000 0.20580  0.00000  0.14470  Biso   1.000  C 
  C4       1.0000 0.14470  0.00000  0.20580  Biso   1.000  C 
  C5       1.0000 0.24200  0.00000  0.17950  Biso   1.000  C 
  H1       1.0000 0.21490  0.00000  0.11140  Biso   1.000  H 
  C6       1.0000 0.17950  0.00000  0.24200  Biso   1.000  C 
  H2       1.0000 0.11140  0.00000  0.21490  Biso   1.000  H 
  C7       1.0000 0.23070  0.00000  0.23070  Biso   1.000  C 
  C8       1.0000 0.26930  0.00000  0.26930  Biso   1.000  C 
  H3       1.0000 0.27510  0.00000  0.16950  Biso   1.000  H 
  C9       1.0000 0.32050  0.00000  0.25800  Biso   1.000  C 
  H4       1.0000 0.16950  0.00000  0.27510  Biso   1.000  H 
  C10      1.0000 0.25800  0.00000  0.32050  Biso   1.000  C 
  C11      1.0000 0.35530  0.00000  0.29420  Biso   1.000  C 
  H5       1.0000 0.33050  0.00000  0.22490  Biso   1.000  H 
  C12      1.0000 0.29420  0.00000  0.35530  Biso   1.000  C 
  H6       1.0000 0.22490  0.00000  0.33050  Biso   1.000  H 
  C13      1.0000 0.34350  0.00000  0.34350  Biso   1.000  C 
  C14      1.0000 0.38280  0.00000  0.38280  Biso   1.000  C 
  O35      1.0000 0.40661  0.01050  0.27690  Biso   1.000  O 
  H7       1.0000 0.28510  0.00000  0.38860  Biso   1.000  H 
  O36      1.0000 0.42810  0.00000  0.36740  Biso   1.000  O 
  O37      1.0000 0.36740  0.00000  0.42810  Biso   1.000  O 
  C15      1.0000 0.40693  0.06104  0.25913  Biso   1.000  C 
  C16      1.0000 0.42931  0.06343  0.20809  Biso   1.000  C 
  H8       1.0000 0.42945  0.08261  0.28463  Biso   1.000  H 
  H9       1.0000 0.37058  0.08117  0.25817  Biso   1.000  H 
  H10      1.0000 0.43359  0.10352  0.20081  Biso   1.000  H 
  C17      1.0000 0.39846  0.04225  0.16503  Biso   1.000  C 
  H11      1.0000 0.46707  0.04555  0.20945  Biso   1.000  H 
  H12      1.0000 0.39080  0.00203  0.16808  Biso   1.000  H 
  H13      1.0000 0.41774  0.05050  0.12895  Biso   1.000  H 
  H14      1.0000 0.36233  0.06289  0.16572  Biso   1.000  H 
  O38      1.0000 0.86740  0.00000  0.07190  Biso   1.000  O 
  C18      1.0000 0.88280  0.00000  0.11720  Biso   1.000  C 
  O39      1.0000 0.92810  0.00000  0.13260  Biso   1.000  O 
  C19      1.0000 0.84350  0.00000  0.15650  Biso   1.000  C 
  C20      1.0000 0.79420  0.00000  0.14470  Biso   1.000  C 
  C21      1.0000 0.85530  0.00000  0.20580  Biso   1.000  C 
  C22      1.0000 0.75800  0.00000  0.17950  Biso   1.000  C 
  H15      1.0000 0.78510  0.00000  0.11140  Biso   1.000  H 
  C23      1.0000 0.82050  0.00000  0.24200  Biso   1.000  C 
  H16      1.0000 0.88860  0.00000  0.21490  Biso   1.000  H 
  C24      1.0000 0.76930  0.00000  0.23070  Biso   1.000  C 
  C25      1.0000 0.73070  0.00000  0.26930  Biso   1.000  C 
  H17      1.0000 0.72490  0.00000  0.16950  Biso   1.000  H 
  C26      1.0000 0.67950  0.00000  0.25800  Biso   1.000  C 
  H18      1.0000 0.83050  0.00000  0.27510  Biso   1.000  H 
  C27      1.0000 0.74200  0.00000  0.32050  Biso   1.000  C 
  C28      1.0000 0.64470  0.00000  0.29420  Biso   1.000  C 
  H19      1.0000 0.66950  0.00000  0.22490  Biso   1.000  H 
  C29      1.0000 0.70580  0.00000  0.35530  Biso   1.000  C 
  H20      1.0000 0.77510  0.00000  0.33050  Biso   1.000  H 
  C30      1.0000 0.65650  0.00000  0.34350  Biso   1.000  C 
  C31      1.0000 0.61720  0.00000  0.38280  Biso   1.000  C 
  O40      1.0000 0.59339  0.98950  0.27690  Biso   1.000  O 
  H21      1.0000 0.71490  0.00000  0.38860  Biso   1.000  H 
  O41      1.0000 0.57190  0.00000  0.36740  Biso   1.000  O 
  O42      1.0000 0.63260  0.00000  0.42810  Biso   1.000  O 
  C32      1.0000 0.59307  0.93896  0.25913  Biso   1.000  C 
  C33      1.0000 0.57069  0.93657  0.20809  Biso   1.000  C 
  H22      1.0000 0.57055  0.91739  0.28463  Biso   1.000  H 
  H23      1.0000 0.62942  0.91883  0.25817  Biso   1.000  H 
  H24      1.0000 0.56641  0.89648  0.20081  Biso   1.000  H 
  C34      1.0000 0.60154  0.95775  0.16503  Biso   1.000  C 
  H25      1.0000 0.53293  0.95445  0.20945  Biso   1.000  H 
  H26      1.0000 0.60920  0.99797  0.16808  Biso   1.000  H 
  H27      1.0000 0.58226  0.94949  0.12895  Biso   1.000  H 
  H28      1.0000 0.63767  0.93711  0.16572  Biso   1.000  H 
  O43      1.0000 0.86740  0.00000  0.92810  Biso   1.000  O 
  C35      1.0000 0.88280  0.00000  0.88280  Biso   1.000  C 
  O44      1.0000 0.92810  0.00000  0.86740  Biso   1.000  O 
  C36      1.0000 0.84350  0.00000  0.84350  Biso   1.000  C 
  C37      1.0000 0.79420  0.00000  0.85530  Biso   1.000  C 
  C38      1.0000 0.85530  0.00000  0.79420  Biso   1.000  C 
  C39      1.0000 0.75800  0.00000  0.82050  Biso   1.000  C 
  H29      1.0000 0.78510  0.00000  0.88860  Biso   1.000  H 
  C40      1.0000 0.82050  0.00000  0.75800  Biso   1.000  C 
  H30      1.0000 0.88860  0.00000  0.78510  Biso   1.000  H 
  C41      1.0000 0.76930  0.00000  0.76930  Biso   1.000  C 
  C42      1.0000 0.73070  0.00000  0.73070  Biso   1.000  C 
  H31      1.0000 0.72490  0.00000  0.83050  Biso   1.000  H 
  C43      1.0000 0.67950  0.00000  0.74200  Biso   1.000  C 
  H32      1.0000 0.83050  0.00000  0.72490  Biso   1.000  H 
  C44      1.0000 0.74200  0.00000  0.67950  Biso   1.000  C 
  C45      1.0000 0.64470  0.00000  0.70580  Biso   1.000  C 
  H33      1.0000 0.66950  0.00000  0.77510  Biso   1.000  H 
  C46      1.0000 0.70580  0.00000  0.64470  Biso   1.000  C 
  H34      1.0000 0.77510  0.00000  0.66950  Biso   1.000  H 
  C47      1.0000 0.65650  0.00000  0.65650  Biso   1.000  C 
  C48      1.0000 0.61720  0.00000  0.61720  Biso   1.000  C 
  O45      1.0000 0.59339  0.01050  0.72310  Biso   1.000  O 
  H35      1.0000 0.71490  0.00000  0.61140  Biso   1.000  H 
  O46      1.0000 0.57190  0.00000  0.63260  Biso   1.000  O 
  O47      1.0000 0.63260  0.00000  0.57190  Biso   1.000  O 
  C49      1.0000 0.59307  0.06104  0.74087  Biso   1.000  C 
  C50      1.0000 0.57069  0.06343  0.79191  Biso   1.000  C 
  H36      1.0000 0.57055  0.08261  0.71537  Biso   1.000  H 
  H37      1.0000 0.62942  0.08117  0.74184  Biso   1.000  H 
  H38      1.0000 0.56641  0.10352  0.79919  Biso   1.000  H 
  C51      1.0000 0.60154  0.04225  0.83497  Biso   1.000  C 
  H39      1.0000 0.53293  0.04555  0.79055  Biso   1.000  H 
  H40      1.0000 0.60920  0.00203  0.83192  Biso   1.000  H 
  H41      1.0000 0.58226  0.05050  0.87105  Biso   1.000  H 
  H42      1.0000 0.63767  0.06289  0.83428  Biso   1.000  H 
  O48      1.0000 0.13260  0.00000  0.92810  Biso   1.000  O 
  C52      1.0000 0.11720  0.00000  0.88280  Biso   1.000  C 
  O49      1.0000 0.07190  0.00000  0.86740  Biso   1.000  O 
  C53      1.0000 0.15650  0.00000  0.84350  Biso   1.000  C 
  C54      1.0000 0.20580  0.00000  0.85530  Biso   1.000  C 
  C55      1.0000 0.14470  0.00000  0.79420  Biso   1.000  C 
  C56      1.0000 0.24200  0.00000  0.82050  Biso   1.000  C 
  H43      1.0000 0.21490  0.00000  0.88860  Biso   1.000  H 
  C57      1.0000 0.17950  0.00000  0.75800  Biso   1.000  C 
  H44      1.0000 0.11140  0.00000  0.78510  Biso   1.000  H 
  C58      1.0000 0.23070  0.00000  0.76930  Biso   1.000  C 
  C59      1.0000 0.26930  0.00000  0.73070  Biso   1.000  C 
  H45      1.0000 0.27510  0.00000  0.83050  Biso   1.000  H 
  C60      1.0000 0.32050  0.00000  0.74200  Biso   1.000  C 
  H46      1.0000 0.16950  0.00000  0.72490  Biso   1.000  H 
  C61      1.0000 0.25800  0.00000  0.67950  Biso   1.000  C 
  C62      1.0000 0.35530  0.00000  0.70580  Biso   1.000  C 
  H47      1.0000 0.33050  0.00000  0.77510  Biso   1.000  H 
  C63      1.0000 0.29420  0.00000  0.64470  Biso   1.000  C 
  H48      1.0000 0.22490  0.00000  0.66950  Biso   1.000  H 
  C64      1.0000 0.34350  0.00000  0.65650  Biso   1.000  C 
  C65      1.0000 0.38280  0.00000  0.61720  Biso   1.000  C 
  O50      1.0000 0.40661  0.98950  0.72310  Biso   1.000  O 
  H49      1.0000 0.28510  0.00000  0.61140  Biso   1.000  H 
  O51      1.0000 0.42810  0.00000  0.63260  Biso   1.000  O 
  O52      1.0000 0.36740  0.00000  0.57190  Biso   1.000  O 
  C66      1.0000 0.40693  0.93896  0.74087  Biso   1.000  C 
  C67      1.0000 0.42931  0.93657  0.79191  Biso   1.000  C 
  H50      1.0000 0.42945  0.91739  0.71537  Biso   1.000  H 
  H51      1.0000 0.37058  0.91883  0.74184  Biso   1.000  H 
  H52      1.0000 0.43359  0.89648  0.79919  Biso   1.000  H 
  C68      1.0000 0.39846  0.95775  0.83497  Biso   1.000  C 
  H53      1.0000 0.46707  0.95445  0.79055  Biso   1.000  H 
  H54      1.0000 0.39080  0.99797  0.83192  Biso   1.000  H 
  H55      1.0000 0.41774  0.94949  0.87105  Biso   1.000  H 
  H56      1.0000 0.36233  0.93711  0.83428  Biso   1.000  H 
  O53      1.0000 0.07190  0.13260  0.00000  Biso   1.000  O 
  C69      1.0000 0.11720  0.11720  0.00000  Biso   1.000  C 
  O54      1.0000 0.13260  0.07190  0.00000  Biso   1.000  O 
  C70      1.0000 0.15650  0.15650  0.00000  Biso   1.000  C 
  C71      1.0000 0.14470  0.20580  0.00000  Biso   1.000  C 
  C72      1.0000 0.20580  0.14470  0.00000  Biso   1.000  C 
  C73      1.0000 0.17950  0.24200  0.00000  Biso   1.000  C 
  H57      1.0000 0.11140  0.21490  0.00000  Biso   1.000  H 
  C74      1.0000 0.24200  0.17950  0.00000  Biso   1.000  C 
  H58      1.0000 0.21490  0.11140  0.00000  Biso   1.000  H 
  C75      1.0000 0.23070  0.23070  0.00000  Biso   1.000  C 
  C76      1.0000 0.26930  0.26930  0.00000  Biso   1.000  C 
  H59      1.0000 0.16950  0.27510  0.00000  Biso   1.000  H 
  C77      1.0000 0.25800  0.32050  0.00000  Biso   1.000  C 
  H60      1.0000 0.27510  0.16950  0.00000  Biso   1.000  H 
  C78      1.0000 0.32050  0.25800  0.00000  Biso   1.000  C 
  C79      1.0000 0.29420  0.35530  0.00000  Biso   1.000  C 
  H61      1.0000 0.22490  0.33050  0.00000  Biso   1.000  H 
  C80      1.0000 0.35530  0.29420  0.00000  Biso   1.000  C 
  H62      1.0000 0.33050  0.22490  0.00000  Biso   1.000  H 
  C81      1.0000 0.34350  0.34350  0.00000  Biso   1.000  C 
  C82      1.0000 0.38280  0.38280  0.00000  Biso   1.000  C 
  O55      1.0000 0.27957  0.40872  0.99969  Biso   1.000  O 
  H63      1.0000 0.38860  0.28510  0.00000  Biso   1.000  H 
  O56      1.0000 0.36740  0.42810  0.00000  Biso   1.000  O 
  O57      1.0000 0.42810  0.36740  0.00000  Biso   1.000  O 
  C83      1.0000 0.24463  0.41824  0.03775  Biso   1.000  C 
  C84      1.0000 0.19092  0.42523  0.01839  Biso   1.000  C 
  H64      1.0000 0.25407  0.45306  0.05647  Biso   1.000  H 
  H65      1.0000 0.24422  0.38853  0.06736  Biso   1.000  H 
  H66      1.0000 0.18706  0.46153  0.00016  Biso   1.000  H 
  C85      1.0000 0.15458  0.42135  0.06041  Biso   1.000  C 
  H67      1.0000 0.17862  0.39629  0.99179  Biso   1.000  H 
  H68      1.0000 0.17024  0.43914  0.09417  Biso   1.000  H 
  H69      1.0000 0.14745  0.38104  0.06750  Biso   1.000  H 
  H70      1.0000 0.11797  0.44005  0.05306  Biso   1.000  H 
  O58      1.0000 0.07190  0.86740  0.00000  Biso   1.000  O 
  C86      1.0000 0.11720  0.88280  0.00000  Biso   1.000  C 
  O59      1.0000 0.13260  0.92810  0.00000  Biso   1.000  O 
  C87      1.0000 0.15650  0.84350  0.00000  Biso   1.000  C 
  C88      1.0000 0.14470  0.79420  0.00000  Biso   1.000  C 
  C89      1.0000 0.20580  0.85530  0.00000  Biso   1.000  C 
  C90      1.0000 0.17950  0.75800  0.00000  Biso   1.000  C 
  H71      1.0000 0.11140  0.78510  0.00000  Biso   1.000  H 
  C91      1.0000 0.24200  0.82050  0.00000  Biso   1.000  C 
  H72      1.0000 0.21490  0.88860  0.00000  Biso   1.000  H 
  C92      1.0000 0.23070  0.76930  0.00000  Biso   1.000  C 
  C93      1.0000 0.26930  0.73070  0.00000  Biso   1.000  C 
  H73      1.0000 0.16950  0.72490  0.00000  Biso   1.000  H 
  C94      1.0000 0.25800  0.67950  0.00000  Biso   1.000  C 
  H74      1.0000 0.27510  0.83050  0.00000  Biso   1.000  H 
  C95      1.0000 0.32050  0.74200  0.00000  Biso   1.000  C 
  C96      1.0000 0.29420  0.64470  0.00000  Biso   1.000  C 
  H75      1.0000 0.22490  0.66950  0.00000  Biso   1.000  H 
  C97      1.0000 0.35530  0.70580  0.00000  Biso   1.000  C 
  H76      1.0000 0.33050  0.77510  0.00000  Biso   1.000  H 
  C98      1.0000 0.34350  0.65650  0.00000  Biso   1.000  C 
  C99      1.0000 0.38280  0.61720  0.00000  Biso   1.000  C 
  O60      1.0000 0.27957  0.59128  0.00031  Biso   1.000  O 
  H77      1.0000 0.38860  0.71490  0.00000  Biso   1.000  H 
  O61      1.0000 0.36740  0.57190  0.00000  Biso   1.000  O 
  O62      1.0000 0.42810  0.63260  0.00000  Biso   1.000  O 
  C100     1.0000 0.24463  0.58176  0.96225  Biso   1.000  C 
  C101     1.0000 0.19092  0.57477  0.98161  Biso   1.000  C 
  H78      1.0000 0.25407  0.54694  0.94353  Biso   1.000  H 
  H79      1.0000 0.24422  0.61147  0.93264  Biso   1.000  H 
  H80      1.0000 0.18706  0.53847  0.99984  Biso   1.000  H 
  C102     1.0000 0.15458  0.57865  0.93959  Biso   1.000  C 
  H81      1.0000 0.17862  0.60371  0.00821  Biso   1.000  H 
  H82      1.0000 0.17024  0.56086  0.90583  Biso   1.000  H 
  H83      1.0000 0.14745  0.61896  0.93250  Biso   1.000  H 
  H84      1.0000 0.11797  0.55995  0.94694  Biso   1.000  H 
  O63      1.0000 0.92810  0.86740  0.00000  Biso   1.000  O 
  C103     1.0000 0.88280  0.88280  0.00000  Biso   1.000  C 
  O64      1.0000 0.86740  0.92810  0.00000  Biso   1.000  O 
  C104     1.0000 0.84350  0.84350  0.00000  Biso   1.000  C 
  C105     1.0000 0.85530  0.79420  0.00000  Biso   1.000  C 
  C106     1.0000 0.79420  0.85530  0.00000  Biso   1.000  C 
  C107     1.0000 0.82050  0.75800  0.00000  Biso   1.000  C 
  H85      1.0000 0.88860  0.78510  0.00000  Biso   1.000  H 
  C108     1.0000 0.75800  0.82050  0.00000  Biso   1.000  C 
  H86      1.0000 0.78510  0.88860  0.00000  Biso   1.000  H 
  C109     1.0000 0.76930  0.76930  0.00000  Biso   1.000  C 
  C110     1.0000 0.73070  0.73070  0.00000  Biso   1.000  C 
  H87      1.0000 0.83050  0.72490  0.00000  Biso   1.000  H 
  C111     1.0000 0.74200  0.67950  0.00000  Biso   1.000  C 
  H88      1.0000 0.72490  0.83050  0.00000  Biso   1.000  H 
  C112     1.0000 0.67950  0.74200  0.00000  Biso   1.000  C 
  C113     1.0000 0.70580  0.64470  0.00000  Biso   1.000  C 
  H89      1.0000 0.77510  0.66950  0.00000  Biso   1.000  H 
  C114     1.0000 0.64470  0.70580  0.00000  Biso   1.000  C 
  H90      1.0000 0.66950  0.77510  0.00000  Biso   1.000  H 
  C115     1.0000 0.65650  0.65650  0.00000  Biso   1.000  C 
  C116     1.0000 0.61720  0.61720  0.00000  Biso   1.000  C 
  O65      1.0000 0.72043  0.59128  0.99969  Biso   1.000  O 
  H91      1.0000 0.61140  0.71490  0.00000  Biso   1.000  H 
  O66      1.0000 0.63260  0.57190  0.00000  Biso   1.000  O 
  O67      1.0000 0.57190  0.63260  0.00000  Biso   1.000  O 
  C117     1.0000 0.75537  0.58176  0.03775  Biso   1.000  C 
  C118     1.0000 0.80908  0.57477  0.01839  Biso   1.000  C 
  H92      1.0000 0.74593  0.54694  0.05647  Biso   1.000  H 
  H93      1.0000 0.75578  0.61147  0.06736  Biso   1.000  H 
  H94      1.0000 0.81294  0.53847  0.00016  Biso   1.000  H 
  C119     1.0000 0.84542  0.57865  0.06041  Biso   1.000  C 
  H95      1.0000 0.82138  0.60371  0.99179  Biso   1.000  H 
  H96      1.0000 0.82976  0.56086  0.09417  Biso   1.000  H 
  H97      1.0000 0.85255  0.61896  0.06750  Biso   1.000  H 
  H98      1.0000 0.88203  0.55995  0.05306  Biso   1.000  H 
  O68      1.0000 0.92810  0.13260  0.00000  Biso   1.000  O 
  C120     1.0000 0.88280  0.11720  0.00000  Biso   1.000  C 
  O69      1.0000 0.86740  0.07190  0.00000  Biso   1.000  O 
  C121     1.0000 0.84350  0.15650  0.00000  Biso   1.000  C 
  C122     1.0000 0.85530  0.20580  0.00000  Biso   1.000  C 
  C123     1.0000 0.79420  0.14470  0.00000  Biso   1.000  C 
  C124     1.0000 0.82050  0.24200  0.00000  Biso   1.000  C 
  H99      1.0000 0.88860  0.21490  0.00000  Biso   1.000  H 
  C125     1.0000 0.75800  0.17950  0.00000  Biso   1.000  C 
  H100     1.0000 0.78510  0.11140  0.00000  Biso   1.000  H 
  C126     1.0000 0.76930  0.23070  0.00000  Biso   1.000  C 
  C127     1.0000 0.73070  0.26930  0.00000  Biso   1.000  C 
  H101     1.0000 0.83050  0.27510  0.00000  Biso   1.000  H 
  C128     1.0000 0.74200  0.32050  0.00000  Biso   1.000  C 
  H102     1.0000 0.72490  0.16950  0.00000  Biso   1.000  H 
  C129     1.0000 0.67950  0.25800  0.00000  Biso   1.000  C 
  C130     1.0000 0.70580  0.35530  0.00000  Biso   1.000  C 
  H103     1.0000 0.77510  0.33050  0.00000  Biso   1.000  H 
  C131     1.0000 0.64470  0.29420  0.00000  Biso   1.000  C 
  H104     1.0000 0.66950  0.22490  0.00000  Biso   1.000  H 
  C132     1.0000 0.65650  0.34350  0.00000  Biso   1.000  C 
  C133     1.0000 0.61720  0.38280  0.00000  Biso   1.000  C 
  O70      1.0000 0.72043  0.40872  0.00031  Biso   1.000  O 
  H105     1.0000 0.61140  0.28510  0.00000  Biso   1.000  H 
  O71      1.0000 0.63260  0.42810  0.00000  Biso   1.000  O 
  O72      1.0000 0.57190  0.36740  0.00000  Biso   1.000  O 
  C134     1.0000 0.75537  0.41824  0.96225  Biso   1.000  C 
  C135     1.0000 0.80908  0.42523  0.98161  Biso   1.000  C 
  H106     1.0000 0.74593  0.45306  0.94353  Biso   1.000  H 
  H107     1.0000 0.75578  0.38853  0.93264  Biso   1.000  H 
  H108     1.0000 0.81294  0.46153  0.99984  Biso   1.000  H 
  C136     1.0000 0.84542  0.42135  0.93959  Biso   1.000  C 
  H109     1.0000 0.82138  0.39629  0.00821  Biso   1.000  H 
  H110     1.0000 0.82976  0.43914  0.90583  Biso   1.000  H 
  H111     1.0000 0.85255  0.38104  0.93250  Biso   1.000  H 
  H112     1.0000 0.88203  0.44005  0.94694  Biso   1.000  H 
  O73      1.0000 0.00000  0.07190  0.13260  Biso   1.000  O 
  C137     1.0000 0.00000  0.11720  0.11720  Biso   1.000  C 
  O74      1.0000 0.00000  0.13260  0.07190  Biso   1.000  O 
  C138     1.0000 0.00000  0.15650  0.15650  Biso   1.000  C 
  C139     1.0000 0.00000  0.14470  0.20580  Biso   1.000  C 
  C140     1.0000 0.00000  0.20580  0.14470  Biso   1.000  C 
  C141     1.0000 0.00000  0.17950  0.24200  Biso   1.000  C 
  H113     1.0000 0.00000  0.11140  0.21490  Biso   1.000  H 
  C142     1.0000 0.00000  0.24200  0.17950  Biso   1.000  C 
  H114     1.0000 0.00000  0.21490  0.11140  Biso   1.000  H 
  C143     1.0000 0.00000  0.23070  0.23070  Biso   1.000  C 
  C144     1.0000 0.00000  0.26930  0.26930  Biso   1.000  C 
  H115     1.0000 0.00000  0.16950  0.27510  Biso   1.000  H 
  C145     1.0000 0.00000  0.25800  0.32050  Biso   1.000  C 
  H116     1.0000 0.00000  0.27510  0.16950  Biso   1.000  H 
  C146     1.0000 0.00000  0.32050  0.25800  Biso   1.000  C 
  C147     1.0000 0.00000  0.29420  0.35530  Biso   1.000  C 
  H117     1.0000 0.00000  0.22490  0.33050  Biso   1.000  H 
  C148     1.0000 0.00000  0.35530  0.29420  Biso   1.000  C 
  H118     1.0000 0.00000  0.33050  0.22490  Biso   1.000  H 
  C149     1.0000 0.00000  0.34350  0.34350  Biso   1.000  C 
  C150     1.0000 0.00000  0.38280  0.38280  Biso   1.000  C 
  O75      1.0000 0.99527  0.27821  0.40747  Biso   1.000  O 
  H119     1.0000 0.00000  0.38860  0.28510  Biso   1.000  H 
  O76      1.0000 0.00000  0.36740  0.42810  Biso   1.000  O 
  O77      1.0000 0.00000  0.42810  0.36740  Biso   1.000  O 
  C151     1.0000 0.03764  0.24968  0.42215  Biso   1.000  C 
  C152     1.0000 0.02891  0.19353  0.41196  Biso   1.000  C 
  H120     1.0000 0.04177  0.25466  0.46277  Biso   1.000  H 
  H121     1.0000 0.07356  0.26055  0.40543  Biso   1.000  H 
  H122     1.0000 0.03770  0.17328  0.44690  Biso   1.000  H 
  C153     1.0000 0.06005  0.16798  0.37115  Biso   1.000  C 
  H123     1.0000 0.98827  0.18678  0.40440  Biso   1.000  H 
  H124     1.0000 0.09541  0.15350  0.38702  Biso   1.000  H 
  H125     1.0000 0.06755  0.19073  0.33754  Biso   1.000  H 
  H126     1.0000 0.03700  0.13577  0.35881  Biso   1.000  H 
  O78      1.0000 0.00000  0.07190  0.86740  Biso   1.000  O 
  C154     1.0000 0.00000  0.11720  0.88280  Biso   1.000  C 
  O79      1.0000 0.00000  0.13260  0.92810  Biso   1.000  O 
  C155     1.0000 0.00000  0.15650  0.84350  Biso   1.000  C 
  C156     1.0000 0.00000  0.14470  0.79420  Biso   1.000  C 
  C157     1.0000 0.00000  0.20580  0.85530  Biso   1.000  C 
  C158     1.0000 0.00000  0.17950  0.75800  Biso   1.000  C 
  H127     1.0000 0.00000  0.11140  0.78510  Biso   1.000  H 
  C159     1.0000 0.00000  0.24200  0.82050  Biso   1.000  C 
  H128     1.0000 0.00000  0.21490  0.88860  Biso   1.000  H 
  C160     1.0000 0.00000  0.23070  0.76930  Biso   1.000  C 
  C161     1.0000 0.00000  0.26930  0.73070  Biso   1.000  C 
  H129     1.0000 0.00000  0.16950  0.72490  Biso   1.000  H 
  C162     1.0000 0.00000  0.25800  0.67950  Biso   1.000  C 
  H130     1.0000 0.00000  0.27510  0.83050  Biso   1.000  H 
  C163     1.0000 0.00000  0.32050  0.74200  Biso   1.000  C 
  C164     1.0000 0.00000  0.29420  0.64470  Biso   1.000  C 
  H131     1.0000 0.00000  0.22490  0.66950  Biso   1.000  H 
  C165     1.0000 0.00000  0.35530  0.70580  Biso   1.000  C 
  H132     1.0000 0.00000  0.33050  0.77510  Biso   1.000  H 
  C166     1.0000 0.00000  0.34350  0.65650  Biso   1.000  C 
  C167     1.0000 0.00000  0.38280  0.61720  Biso   1.000  C 
  O80      1.0000 0.00473  0.27821  0.59253  Biso   1.000  O 
  H133     1.0000 0.00000  0.38860  0.71490  Biso   1.000  H 
  O81      1.0000 0.00000  0.36740  0.57190  Biso   1.000  O 
  O82      1.0000 0.00000  0.42810  0.63260  Biso   1.000  O 
  C168     1.0000 0.96236  0.24968  0.57785  Biso   1.000  C 
  C169     1.0000 0.97109  0.19353  0.58804  Biso   1.000  C 
  H134     1.0000 0.95822  0.25466  0.53723  Biso   1.000  H 
  H135     1.0000 0.92644  0.26055  0.59457  Biso   1.000  H 
  H136     1.0000 0.96230  0.17328  0.55310  Biso   1.000  H 
  C170     1.0000 0.93995  0.16798  0.62884  Biso   1.000  C 
  H137     1.0000 0.01172  0.18678  0.59560  Biso   1.000  H 
  H138     1.0000 0.90460  0.15350  0.61298  Biso   1.000  H 
  H139     1.0000 0.93245  0.19073  0.66246  Biso   1.000  H 
  H140     1.0000 0.96300  0.13577  0.64118  Biso   1.000  H 
  O83      1.0000 0.00000  0.92810  0.86740  Biso   1.000  O 
  C171     1.0000 0.00000  0.88280  0.88280  Biso   1.000  C 
  O84      1.0000 0.00000  0.86740  0.92810  Biso   1.000  O 
  C172     1.0000 0.00000  0.84350  0.84350  Biso   1.000  C 
  C173     1.0000 0.00000  0.85530  0.79420  Biso   1.000  C 
  C174     1.0000 0.00000  0.79420  0.85530  Biso   1.000  C 
  C175     1.0000 0.00000  0.82050  0.75800  Biso   1.000  C 
  H141     1.0000 0.00000  0.88860  0.78510  Biso   1.000  H 
  C176     1.0000 0.00000  0.75800  0.82050  Biso   1.000  C 
  H142     1.0000 0.00000  0.78510  0.88860  Biso   1.000  H 
  C177     1.0000 0.00000  0.76930  0.76930  Biso   1.000  C 
  C178     1.0000 0.00000  0.73070  0.73070  Biso   1.000  C 
  H143     1.0000 0.00000  0.83050  0.72490  Biso   1.000  H 
  C179     1.0000 0.00000  0.74200  0.67950  Biso   1.000  C 
  H144     1.0000 0.00000  0.72490  0.83050  Biso   1.000  H 
  C180     1.0000 0.00000  0.67950  0.74200  Biso   1.000  C 
  C181     1.0000 0.00000  0.70580  0.64470  Biso   1.000  C 
  H145     1.0000 0.00000  0.77510  0.66950  Biso   1.000  H 
  C182     1.0000 0.00000  0.64470  0.70580  Biso   1.000  C 
  H146     1.0000 0.00000  0.66950  0.77510  Biso   1.000  H 
  C183     1.0000 0.00000  0.65650  0.65650  Biso   1.000  C 
  C184     1.0000 0.00000  0.61720  0.61720  Biso   1.000  C 
  O85      1.0000 0.99527  0.72178  0.59253  Biso   1.000  O 
  H147     1.0000 0.00000  0.61140  0.71490  Biso   1.000  H 
  O86      1.0000 0.00000  0.63260  0.57190  Biso   1.000  O 
  O87      1.0000 0.00000  0.57190  0.63260  Biso   1.000  O 
  C185     1.0000 0.03764  0.75032  0.57785  Biso   1.000  C 
  C186     1.0000 0.02891  0.80647  0.58804  Biso   1.000  C 
  H148     1.0000 0.04177  0.74534  0.53723  Biso   1.000  H 
  H149     1.0000 0.07356  0.73945  0.59457  Biso   1.000  H 
  H150     1.0000 0.03770  0.82672  0.55310  Biso   1.000  H 
  C187     1.0000 0.06005  0.83202  0.62884  Biso   1.000  C 
  H151     1.0000 0.98827  0.81322  0.59560  Biso   1.000  H 
  H152     1.0000 0.09541  0.84650  0.61298  Biso   1.000  H 
  H153     1.0000 0.06755  0.80927  0.66246  Biso   1.000  H 
  H154     1.0000 0.03700  0.86423  0.64118  Biso   1.000  H 
  O88      1.0000 0.00000  0.92810  0.13260  Biso   1.000  O 
  C188     1.0000 0.00000  0.88280  0.11720  Biso   1.000  C 
  O89      1.0000 0.00000  0.86740  0.07190  Biso   1.000  O 
  C189     1.0000 0.00000  0.84350  0.15650  Biso   1.000  C 
  C190     1.0000 0.00000  0.85530  0.20580  Biso   1.000  C 
  C191     1.0000 0.00000  0.79420  0.14470  Biso   1.000  C 
  C192     1.0000 0.00000  0.82050  0.24200  Biso   1.000  C 
  H155     1.0000 0.00000  0.88860  0.21490  Biso   1.000  H 
  C193     1.0000 0.00000  0.75800  0.17950  Biso   1.000  C 
  H156     1.0000 0.00000  0.78510  0.11140  Biso   1.000  H 
  C194     1.0000 0.00000  0.76930  0.23070  Biso   1.000  C 
  C195     1.0000 0.00000  0.73070  0.26930  Biso   1.000  C 
  H157     1.0000 0.00000  0.83050  0.27510  Biso   1.000  H 
  C196     1.0000 0.00000  0.74200  0.32050  Biso   1.000  C 
  H158     1.0000 0.00000  0.72490  0.16950  Biso   1.000  H 
  C197     1.0000 0.00000  0.67950  0.25800  Biso   1.000  C 
  C198     1.0000 0.00000  0.70580  0.35530  Biso   1.000  C 
  H159     1.0000 0.00000  0.77510  0.33050  Biso   1.000  H 
  C199     1.0000 0.00000  0.64470  0.29420  Biso   1.000  C 
  H160     1.0000 0.00000  0.66950  0.22490  Biso   1.000  H 
  C200     1.0000 0.00000  0.65650  0.34350  Biso   1.000  C 
  C201     1.0000 0.00000  0.61720  0.38280  Biso   1.000  C 
  O90      1.0000 0.00473  0.72178  0.40747  Biso   1.000  O 
  H161     1.0000 0.00000  0.61140  0.28510  Biso   1.000  H 
  O91      1.0000 0.00000  0.63260  0.42810  Biso   1.000  O 
  O92      1.0000 0.00000  0.57190  0.36740  Biso   1.000  O 
  C202     1.0000 0.96236  0.75032  0.42215  Biso   1.000  C 
  C203     1.0000 0.97109  0.80647  0.41196  Biso   1.000  C 
  H162     1.0000 0.95822  0.74534  0.46277  Biso   1.000  H 
  H163     1.0000 0.92644  0.73945  0.40543  Biso   1.000  H 
  H164     1.0000 0.96230  0.82672  0.44690  Biso   1.000  H 
  C204     1.0000 0.93995  0.83202  0.37115  Biso   1.000  C 
  H165     1.0000 0.01172  0.81322  0.40440  Biso   1.000  H 
  H166     1.0000 0.90460  0.84650  0.38702  Biso   1.000  H 
  H167     1.0000 0.93245  0.80927  0.33754  Biso   1.000  H 
  H168     1.0000 0.96300  0.86423  0.35881  Biso   1.000  H 
  O93      1.0000 0.13260  0.50000  0.57190  Biso   1.000  O 
  C205     1.0000 0.11720  0.50000  0.61720  Biso   1.000  C 
  O94      1.0000 0.07190  0.50000  0.63260  Biso   1.000  O 
  C206     1.0000 0.15650  0.50000  0.65650  Biso   1.000  C 
  C207     1.0000 0.20580  0.50000  0.64470  Biso   1.000  C 
  C208     1.0000 0.14470  0.50000  0.70580  Biso   1.000  C 
  C209     1.0000 0.24200  0.50000  0.67950  Biso   1.000  C 
  H169     1.0000 0.21490  0.50000  0.61140  Biso   1.000  H 
  C210     1.0000 0.17950  0.50000  0.74200  Biso   1.000  C 
  H170     1.0000 0.11140  0.50000  0.71490  Biso   1.000  H 
  C211     1.0000 0.23070  0.50000  0.73070  Biso   1.000  C 
  C212     1.0000 0.26930  0.50000  0.76930  Biso   1.000  C 
  H171     1.0000 0.27510  0.50000  0.66950  Biso   1.000  H 
  C213     1.0000 0.32050  0.50000  0.75800  Biso   1.000  C 
  H172     1.0000 0.16950  0.50000  0.77510  Biso   1.000  H 
  C214     1.0000 0.25800  0.50000  0.82050  Biso   1.000  C 
  C215     1.0000 0.35530  0.50000  0.79420  Biso   1.000  C 
  H173     1.0000 0.33050  0.50000  0.72490  Biso   1.000  H 
  C216     1.0000 0.29420  0.50000  0.85530  Biso   1.000  C 
  H174     1.0000 0.22490  0.50000  0.83050  Biso   1.000  H 
  C217     1.0000 0.34350  0.50000  0.84350  Biso   1.000  C 
  C218     1.0000 0.38280  0.50000  0.88280  Biso   1.000  C 
  O95      1.0000 0.40877  0.49972  0.77936  Biso   1.000  O 
  H175     1.0000 0.28510  0.50000  0.88860  Biso   1.000  H 
  O96      1.0000 0.42810  0.50000  0.86740  Biso   1.000  O 
  O97      1.0000 0.36740  0.50000  0.92810  Biso   1.000  O 
  C219     1.0000 0.41770  0.53748  0.74340  Biso   1.000  C 
  C220     1.0000 0.42935  0.51742  0.69015  Biso   1.000  C 
  H176     1.0000 0.45064  0.55856  0.75465  Biso   1.000  H 
  H177     1.0000 0.38668  0.56544  0.73993  Biso   1.000  H 
  H178     1.0000 0.46290  0.49390  0.69003  Biso   1.000  H 
  C221     1.0000 0.43404  0.56021  0.65506  Biso   1.000  C 
  H179     1.0000 0.39865  0.49488  0.67414  Biso   1.000  H 
  H180     1.0000 0.45790  0.58974  0.67113  Biso   1.000  H 
  H181     1.0000 0.39594  0.57508  0.64735  Biso   1.000  H 
  H182     1.0000 0.45149  0.54912  0.61878  Biso   1.000  H 
  O98      1.0000 0.86740  0.50000  0.57190  Biso   1.000  O 
  C222     1.0000 0.88280  0.50000  0.61720  Biso   1.000  C 
  O99      1.0000 0.92810  0.50000  0.63260  Biso   1.000  O 
  C223     1.0000 0.84350  0.50000  0.65650  Biso   1.000  C 
  C224     1.0000 0.79420  0.50000  0.64470  Biso   1.000  C 
  C225     1.0000 0.85530  0.50000  0.70580  Biso   1.000  C 
  C226     1.0000 0.75800  0.50000  0.67950  Biso   1.000  C 
  H183     1.0000 0.78510  0.50000  0.61140  Biso   1.000  H 
  C227     1.0000 0.82050  0.50000  0.74200  Biso   1.000  C 
  H184     1.0000 0.88860  0.50000  0.71490  Biso   1.000  H 
  C228     1.0000 0.76930  0.50000  0.73070  Biso   1.000  C 
  C229     1.0000 0.73070  0.50000  0.76930  Biso   1.000  C 
  H185     1.0000 0.72490  0.50000  0.66950  Biso   1.000  H 
  C230     1.0000 0.67950  0.50000  0.75800  Biso   1.000  C 
  H186     1.0000 0.83050  0.50000  0.77510  Biso   1.000  H 
  C231     1.0000 0.74200  0.50000  0.82050  Biso   1.000  C 
  C232     1.0000 0.64470  0.50000  0.79420  Biso   1.000  C 
  H187     1.0000 0.66950  0.50000  0.72490  Biso   1.000  H 
  C233     1.0000 0.70580  0.50000  0.85530  Biso   1.000  C 
  H188     1.0000 0.77510  0.50000  0.83050  Biso   1.000  H 
  C234     1.0000 0.65650  0.50000  0.84350  Biso   1.000  C 
  C235     1.0000 0.61720  0.50000  0.88280  Biso   1.000  C 
  O100     1.0000 0.59123  0.50028  0.77936  Biso   1.000  O 
  H189     1.0000 0.71490  0.50000  0.88860  Biso   1.000  H 
  O101     1.0000 0.57190  0.50000  0.86740  Biso   1.000  O 
  O102     1.0000 0.63260  0.50000  0.92810  Biso   1.000  O 
  C236     1.0000 0.58230  0.46252  0.74340  Biso   1.000  C 
  C237     1.0000 0.57065  0.48258  0.69015  Biso   1.000  C 
  H190     1.0000 0.54936  0.44144  0.75465  Biso   1.000  H 
  H191     1.0000 0.61332  0.43456  0.73993  Biso   1.000  H 
  H192     1.0000 0.53710  0.50610  0.69003  Biso   1.000  H 
  C238     1.0000 0.56596  0.43979  0.65506  Biso   1.000  C 
  H193     1.0000 0.60135  0.50512  0.67414  Biso   1.000  H 
  H194     1.0000 0.54210  0.41026  0.67113  Biso   1.000  H 
  H195     1.0000 0.60406  0.42492  0.64735  Biso   1.000  H 
  H196     1.0000 0.54851  0.45088  0.61878  Biso   1.000  H 
  O103     1.0000 0.86740  0.50000  0.42810  Biso   1.000  O 
  C239     1.0000 0.88280  0.50000  0.38280  Biso   1.000  C 
  O104     1.0000 0.92810  0.50000  0.36740  Biso   1.000  O 
  C240     1.0000 0.84350  0.50000  0.34350  Biso   1.000  C 
  C241     1.0000 0.79420  0.50000  0.35530  Biso   1.000  C 
  C242     1.0000 0.85530  0.50000  0.29420  Biso   1.000  C 
  C243     1.0000 0.75800  0.50000  0.32050  Biso   1.000  C 
  H197     1.0000 0.78510  0.50000  0.38860  Biso   1.000  H 
  C244     1.0000 0.82050  0.50000  0.25800  Biso   1.000  C 
  H198     1.0000 0.88860  0.50000  0.28510  Biso   1.000  H 
  C245     1.0000 0.76930  0.50000  0.26930  Biso   1.000  C 
  C246     1.0000 0.73070  0.50000  0.23070  Biso   1.000  C 
  H199     1.0000 0.72490  0.50000  0.33050  Biso   1.000  H 
  C247     1.0000 0.67950  0.50000  0.24200  Biso   1.000  C 
  H200     1.0000 0.83050  0.50000  0.22490  Biso   1.000  H 
  C248     1.0000 0.74200  0.50000  0.17950  Biso   1.000  C 
  C249     1.0000 0.64470  0.50000  0.20580  Biso   1.000  C 
  H201     1.0000 0.66950  0.50000  0.27510  Biso   1.000  H 
  C250     1.0000 0.70580  0.50000  0.14470  Biso   1.000  C 
  H202     1.0000 0.77510  0.50000  0.16950  Biso   1.000  H 
  C251     1.0000 0.65650  0.50000  0.15650  Biso   1.000  C 
  C252     1.0000 0.61720  0.50000  0.11720  Biso   1.000  C 
  O105     1.0000 0.59123  0.49972  0.22064  Biso   1.000  O 
  H203     1.0000 0.71490  0.50000  0.11140  Biso   1.000  H 
  O106     1.0000 0.57190  0.50000  0.13260  Biso   1.000  O 
  O107     1.0000 0.63260  0.50000  0.07190  Biso   1.000  O 
  C253     1.0000 0.58230  0.53748  0.25660  Biso   1.000  C 
  C254     1.0000 0.57065  0.51742  0.30985  Biso   1.000  C 
  H204     1.0000 0.54936  0.55856  0.24535  Biso   1.000  H 
  H205     1.0000 0.61332  0.56544  0.26007  Biso   1.000  H 
  H206     1.0000 0.53710  0.49390  0.30997  Biso   1.000  H 
  C255     1.0000 0.56596  0.56021  0.34493  Biso   1.000  C 
  H207     1.0000 0.60135  0.49488  0.32586  Biso   1.000  H 
  H208     1.0000 0.54210  0.58974  0.32887  Biso   1.000  H 
  H209     1.0000 0.60406  0.57508  0.35265  Biso   1.000  H 
  H210     1.0000 0.54851  0.54912  0.38122  Biso   1.000  H 
  O108     1.0000 0.13260  0.50000  0.42810  Biso   1.000  O 
  C256     1.0000 0.11720  0.50000  0.38280  Biso   1.000  C 
  O109     1.0000 0.07190  0.50000  0.36740  Biso   1.000  O 
  C257     1.0000 0.15650  0.50000  0.34350  Biso   1.000  C 
  C258     1.0000 0.20580  0.50000  0.35530  Biso   1.000  C 
  C259     1.0000 0.14470  0.50000  0.29420  Biso   1.000  C 
  C260     1.0000 0.24200  0.50000  0.32050  Biso   1.000  C 
  H211     1.0000 0.21490  0.50000  0.38860  Biso   1.000  H 
  C261     1.0000 0.17950  0.50000  0.25800  Biso   1.000  C 
  H212     1.0000 0.11140  0.50000  0.28510  Biso   1.000  H 
  C262     1.0000 0.23070  0.50000  0.26930  Biso   1.000  C 
  C263     1.0000 0.26930  0.50000  0.23070  Biso   1.000  C 
  H213     1.0000 0.27510  0.50000  0.33050  Biso   1.000  H 
  C264     1.0000 0.32050  0.50000  0.24200  Biso   1.000  C 
  H214     1.0000 0.16950  0.50000  0.22490  Biso   1.000  H 
  C265     1.0000 0.25800  0.50000  0.17950  Biso   1.000  C 
  C266     1.0000 0.35530  0.50000  0.20580  Biso   1.000  C 
  H215     1.0000 0.33050  0.50000  0.27510  Biso   1.000  H 
  C267     1.0000 0.29420  0.50000  0.14470  Biso   1.000  C 
  H216     1.0000 0.22490  0.50000  0.16950  Biso   1.000  H 
  C268     1.0000 0.34350  0.50000  0.15650  Biso   1.000  C 
  C269     1.0000 0.38280  0.50000  0.11720  Biso   1.000  C 
  O110     1.0000 0.40877  0.50028  0.22064  Biso   1.000  O 
  H217     1.0000 0.28510  0.50000  0.11140  Biso   1.000  H 
  O111     1.0000 0.42810  0.50000  0.13260  Biso   1.000  O 
  O112     1.0000 0.36740  0.50000  0.07190  Biso   1.000  O 
  C270     1.0000 0.41770  0.46252  0.25660  Biso   1.000  C 
  C271     1.0000 0.42935  0.48258  0.30985  Biso   1.000  C 
  H218     1.0000 0.45064  0.44144  0.24535  Biso   1.000  H 
  H219     1.0000 0.38668  0.43456  0.26007  Biso   1.000  H 
  H220     1.0000 0.46290  0.50610  0.30997  Biso   1.000  H 
  C272     1.0000 0.43404  0.43979  0.34493  Biso   1.000  C 
  H221     1.0000 0.39865  0.50512  0.32586  Biso   1.000  H 
  H222     1.0000 0.45790  0.41026  0.32887  Biso   1.000  H 
  H223     1.0000 0.39594  0.42492  0.35265  Biso   1.000  H 
  H224     1.0000 0.45149  0.45088  0.38122  Biso   1.000  H 
  O113     1.0000 0.07190  0.63260  0.50000  Biso   1.000  O 
  C273     1.0000 0.11720  0.61720  0.50000  Biso   1.000  C 
  O114     1.0000 0.13260  0.57190  0.50000  Biso   1.000  O 
  C274     1.0000 0.15650  0.65650  0.50000  Biso   1.000  C 
  C275     1.0000 0.14470  0.70580  0.50000  Biso   1.000  C 
  C276     1.0000 0.20580  0.64470  0.50000  Biso   1.000  C 
  C277     1.0000 0.17950  0.74200  0.50000  Biso   1.000  C 
  H225     1.0000 0.11140  0.71490  0.50000  Biso   1.000  H 
  C278     1.0000 0.24200  0.67950  0.50000  Biso   1.000  C 
  H226     1.0000 0.21490  0.61140  0.50000  Biso   1.000  H 
  C279     1.0000 0.23070  0.73070  0.50000  Biso   1.000  C 
  C280     1.0000 0.26930  0.76930  0.50000  Biso   1.000  C 
  H227     1.0000 0.16950  0.77510  0.50000  Biso   1.000  H 
  C281     1.0000 0.25800  0.82050  0.50000  Biso   1.000  C 
  H228     1.0000 0.27510  0.66950  0.50000  Biso   1.000  H 
  C282     1.0000 0.32050  0.75800  0.50000  Biso   1.000  C 
  C283     1.0000 0.29420  0.85530  0.50000  Biso   1.000  C 
  H229     1.0000 0.22490  0.83050  0.50000  Biso   1.000  H 
  C284     1.0000 0.35530  0.79420  0.50000  Biso   1.000  C 
  H230     1.0000 0.33050  0.72490  0.50000  Biso   1.000  H 
  C285     1.0000 0.34350  0.84350  0.50000  Biso   1.000  C 
  C286     1.0000 0.38280  0.88280  0.50000  Biso   1.000  C 
  O115     1.0000 0.27829  0.90717  0.49439  Biso   1.000  O 
  H231     1.0000 0.38860  0.78510  0.50000  Biso   1.000  H 
  O116     1.0000 0.36740  0.92810  0.50000  Biso   1.000  O 
  O117     1.0000 0.42810  0.86740  0.50000  Biso   1.000  O 
  C287     1.0000 0.24694  0.92122  0.53511  Biso   1.000  C 
  C288     1.0000 0.19165  0.93826  0.52010  Biso   1.000  C 
  H232     1.0000 0.26460  0.95552  0.54931  Biso   1.000  H 
  H233     1.0000 0.24597  0.89443  0.56743  Biso   1.000  H 
  H234     1.0000 0.18214  0.96671  0.54823  Biso   1.000  H 
  C289     1.0000 0.14822  0.90115  0.52365  Biso   1.000  C 
  H235     1.0000 0.19043  0.95607  0.48299  Biso   1.000  H 
  H236     1.0000 0.11233  0.92228  0.52751  Biso   1.000  H 
  H237     1.0000 0.15452  0.87803  0.55710  Biso   1.000  H 
  H238     1.0000 0.14434  0.87714  0.49047  Biso   1.000  H 
  O118     1.0000 0.07190  0.36740  0.50000  Biso   1.000  O 
  C290     1.0000 0.11720  0.38280  0.50000  Biso   1.000  C 
  O119     1.0000 0.13260  0.42810  0.50000  Biso   1.000  O 
  C291     1.0000 0.15650  0.34350  0.50000  Biso   1.000  C 
  C292     1.0000 0.14470  0.29420  0.50000  Biso   1.000  C 
  C293     1.0000 0.20580  0.35530  0.50000  Biso   1.000  C 
  C294     1.0000 0.17950  0.25800  0.50000  Biso   1.000  C 
  H239     1.0000 0.11140  0.28510  0.50000  Biso   1.000  H 
  C295     1.0000 0.24200  0.32050  0.50000  Biso   1.000  C 
  H240     1.0000 0.21490  0.38860  0.50000  Biso   1.000  H 
  C296     1.0000 0.23070  0.26930  0.50000  Biso   1.000  C 
  C297     1.0000 0.26930  0.23070  0.50000  Biso   1.000  C 
  H241     1.0000 0.16950  0.22490  0.50000  Biso   1.000  H 
  C298     1.0000 0.25800  0.17950  0.50000  Biso   1.000  C 
  H242     1.0000 0.27510  0.33050  0.50000  Biso   1.000  H 
  C299     1.0000 0.32050  0.24200  0.50000  Biso   1.000  C 
  C300     1.0000 0.29420  0.14470  0.50000  Biso   1.000  C 
  H243     1.0000 0.22490  0.16950  0.50000  Biso   1.000  H 
  C301     1.0000 0.35530  0.20580  0.50000  Biso   1.000  C 
  H244     1.0000 0.33050  0.27510  0.50000  Biso   1.000  H 
  C302     1.0000 0.34350  0.15650  0.50000  Biso   1.000  C 
  C303     1.0000 0.38280  0.11720  0.50000  Biso   1.000  C 
  O120     1.0000 0.27829  0.09283  0.50561  Biso   1.000  O 
  H245     1.0000 0.38860  0.21490  0.50000  Biso   1.000  H 
  O121     1.0000 0.36740  0.07190  0.50000  Biso   1.000  O 
  O122     1.0000 0.42810  0.13260  0.50000  Biso   1.000  O 
  C304     1.0000 0.24694  0.07879  0.46489  Biso   1.000  C 
  C305     1.0000 0.19165  0.06174  0.47990  Biso   1.000  C 
  H246     1.0000 0.26460  0.04448  0.45069  Biso   1.000  H 
  H247     1.0000 0.24597  0.10558  0.43257  Biso   1.000  H 
  H248     1.0000 0.18214  0.03329  0.45177  Biso   1.000  H 
  C306     1.0000 0.14822  0.09885  0.47635  Biso   1.000  C 
  H249     1.0000 0.19043  0.04393  0.51701  Biso   1.000  H 
  H250     1.0000 0.11233  0.07772  0.47249  Biso   1.000  H 
  H251     1.0000 0.15452  0.12198  0.44290  Biso   1.000  H 
  H252     1.0000 0.14434  0.12286  0.50953  Biso   1.000  H 
  O123     1.0000 0.92810  0.36740  0.50000  Biso   1.000  O 
  C307     1.0000 0.88280  0.38280  0.50000  Biso   1.000  C 
  O124     1.0000 0.86740  0.42810  0.50000  Biso   1.000  O 
  C308     1.0000 0.84350  0.34350  0.50000  Biso   1.000  C 
  C309     1.0000 0.85530  0.29420  0.50000  Biso   1.000  C 
  C310     1.0000 0.79420  0.35530  0.50000  Biso   1.000  C 
  C311     1.0000 0.82050  0.25800  0.50000  Biso   1.000  C 
  H253     1.0000 0.88860  0.28510  0.50000  Biso   1.000  H 
  C312     1.0000 0.75800  0.32050  0.50000  Biso   1.000  C 
  H254     1.0000 0.78510  0.38860  0.50000  Biso   1.000  H 
  C313     1.0000 0.76930  0.26930  0.50000  Biso   1.000  C 
  C314     1.0000 0.73070  0.23070  0.50000  Biso   1.000  C 
  H255     1.0000 0.83050  0.22490  0.50000  Biso   1.000  H 
  C315     1.0000 0.74200  0.17950  0.50000  Biso   1.000  C 
  H256     1.0000 0.72490  0.33050  0.50000  Biso   1.000  H 
  C316     1.0000 0.67950  0.24200  0.50000  Biso   1.000  C 
  C317     1.0000 0.70580  0.14470  0.50000  Biso   1.000  C 
  H257     1.0000 0.77510  0.16950  0.50000  Biso   1.000  H 
  C318     1.0000 0.64470  0.20580  0.50000  Biso   1.000  C 
  H258     1.0000 0.66950  0.27510  0.50000  Biso   1.000  H 
  C319     1.0000 0.65650  0.15650  0.50000  Biso   1.000  C 
  C320     1.0000 0.61720  0.11720  0.50000  Biso   1.000  C 
  O125     1.0000 0.72171  0.09283  0.49439  Biso   1.000  O 
  H259     1.0000 0.61140  0.21490  0.50000  Biso   1.000  H 
  O126     1.0000 0.63260  0.07190  0.50000  Biso   1.000  O 
  O127     1.0000 0.57190  0.13260  0.50000  Biso   1.000  O 
  C321     1.0000 0.75306  0.07879  0.53511  Biso   1.000  C 
  C322     1.0000 0.80835  0.06174  0.52010  Biso   1.000  C 
  H260     1.0000 0.73540  0.04448  0.54931  Biso   1.000  H 
  H261     1.0000 0.75403  0.10558  0.56743  Biso   1.000  H 
  H262     1.0000 0.81786  0.03329  0.54823  Biso   1.000  H 
  C323     1.0000 0.85178  0.09885  0.52365  Biso   1.000  C 
  H263     1.0000 0.80957  0.04393  0.48299  Biso   1.000  H 
  H264     1.0000 0.88767  0.07772  0.52751  Biso   1.000  H 
  H265     1.0000 0.84548  0.12198  0.55710  Biso   1.000  H 
  H266     1.0000 0.85566  0.12286  0.49047  Biso   1.000  H 
  O128     1.0000 0.92810  0.63260  0.50000  Biso   1.000  O 
  C324     1.0000 0.88280  0.61720  0.50000  Biso   1.000  C 
  O129     1.0000 0.86740  0.57190  0.50000  Biso   1.000  O 
  C325     1.0000 0.84350  0.65650  0.50000  Biso   1.000  C 
  C326     1.0000 0.85530  0.70580  0.50000  Biso   1.000  C 
  C327     1.0000 0.79420  0.64470  0.50000  Biso   1.000  C 
  C328     1.0000 0.82050  0.74200  0.50000  Biso   1.000  C 
  H267     1.0000 0.88860  0.71490  0.50000  Biso   1.000  H 
  C329     1.0000 0.75800  0.67950  0.50000  Biso   1.000  C 
  H268     1.0000 0.78510  0.61140  0.50000  Biso   1.000  H 
  C330     1.0000 0.76930  0.73070  0.50000  Biso   1.000  C 
  C331     1.0000 0.73070  0.76930  0.50000  Biso   1.000  C 
  H269     1.0000 0.83050  0.77510  0.50000  Biso   1.000  H 
  C332     1.0000 0.74200  0.82050  0.50000  Biso   1.000  C 
  H270     1.0000 0.72490  0.66950  0.50000  Biso   1.000  H 
  C333     1.0000 0.67950  0.75800  0.50000  Biso   1.000  C 
  C334     1.0000 0.70580  0.85530  0.50000  Biso   1.000  C 
  H271     1.0000 0.77510  0.83050  0.50000  Biso   1.000  H 
  C335     1.0000 0.64470  0.79420  0.50000  Biso   1.000  C 
  H272     1.0000 0.66950  0.72490  0.50000  Biso   1.000  H 
  C336     1.0000 0.65650  0.84350  0.50000  Biso   1.000  C 
  C337     1.0000 0.61720  0.88280  0.50000  Biso   1.000  C 
  O130     1.0000 0.72171  0.90717  0.50561  Biso   1.000  O 
  H273     1.0000 0.61140  0.78510  0.50000  Biso   1.000  H 
  O131     1.0000 0.63260  0.92810  0.50000  Biso   1.000  O 
  O132     1.0000 0.57190  0.86740  0.50000  Biso   1.000  O 
  C338     1.0000 0.75306  0.92122  0.46489  Biso   1.000  C 
  C339     1.0000 0.80835  0.93826  0.47990  Biso   1.000  C 
  H274     1.0000 0.73540  0.95552  0.45069  Biso   1.000  H 
  H275     1.0000 0.75403  0.89443  0.43257  Biso   1.000  H 
  H276     1.0000 0.81786  0.96671  0.45177  Biso   1.000  H 
  C340     1.0000 0.85178  0.90115  0.47635  Biso   1.000  C 
  H277     1.0000 0.80957  0.95607  0.51701  Biso   1.000  H 
  H278     1.0000 0.88767  0.92228  0.47249  Biso   1.000  H 
  H279     1.0000 0.84548  0.87803  0.44290  Biso   1.000  H 
  H280     1.0000 0.85566  0.87714  0.50953  Biso   1.000  H 
  O133     1.0000 0.50000  0.07190  0.63260  Biso   1.000  O 
  C341     1.0000 0.50000  0.11720  0.61720  Biso   1.000  C 
  O134     1.0000 0.50000  0.13260  0.57190  Biso   1.000  O 
  C342     1.0000 0.50000  0.15650  0.65650  Biso   1.000  C 
  C343     1.0000 0.50000  0.14470  0.70580  Biso   1.000  C 
  C344     1.0000 0.50000  0.20580  0.64470  Biso   1.000  C 
  C345     1.0000 0.50000  0.17950  0.74200  Biso   1.000  C 
  H281     1.0000 0.50000  0.11140  0.71490  Biso   1.000  H 
  C346     1.0000 0.50000  0.24200  0.67950  Biso   1.000  C 
  H282     1.0000 0.50000  0.21490  0.61140  Biso   1.000  H 
  C347     1.0000 0.50000  0.23070  0.73070  Biso   1.000  C 
  C348     1.0000 0.50000  0.26930  0.76930  Biso   1.000  C 
  H283     1.0000 0.50000  0.16950  0.77510  Biso   1.000  H 
  C349     1.0000 0.50000  0.25800  0.82050  Biso   1.000  C 
  H284     1.0000 0.50000  0.27510  0.66950  Biso   1.000  H 
  C350     1.0000 0.50000  0.32050  0.75800  Biso   1.000  C 
  C351     1.0000 0.50000  0.29420  0.85530  Biso   1.000  C 
  H285     1.0000 0.50000  0.22490  0.83050  Biso   1.000  H 
  C352     1.0000 0.50000  0.35530  0.79420  Biso   1.000  C 
  H286     1.0000 0.50000  0.33050  0.72490  Biso   1.000  H 
  C353     1.0000 0.50000  0.34350  0.84350  Biso   1.000  C 
  C354     1.0000 0.50000  0.38280  0.88280  Biso   1.000  C 
  O135     1.0000 0.49454  0.28009  0.90905  Biso   1.000  O 
  H287     1.0000 0.50000  0.38860  0.78510  Biso   1.000  H 
  O136     1.0000 0.50000  0.36740  0.92810  Biso   1.000  O 
  O137     1.0000 0.50000  0.42810  0.86740  Biso   1.000  O 
  C355     1.0000 0.53862  0.27093  0.93370  Biso   1.000  C 
  C356     1.0000 0.54513  0.21348  0.94150  Biso   1.000  C 
  H288     1.0000 0.53204  0.28713  0.97095  Biso   1.000  H 
  H289     1.0000 0.57104  0.29057  0.91700  Biso   1.000  H 
  H290     1.0000 0.55042  0.20506  0.98209  Biso   1.000  H 
  C357     1.0000 0.58970  0.19500  0.91528  Biso   1.000  C 
  H291     1.0000 0.51046  0.19511  0.92742  Biso   1.000  H 
  H292     1.0000 0.60729  0.16669  0.93851  Biso   1.000  H 
  H293     1.0000 0.61796  0.22492  0.91017  Biso   1.000  H 
  H294     1.0000 0.58197  0.17904  0.87891  Biso   1.000  H 
  O138     1.0000 0.50000  0.07190  0.36740  Biso   1.000  O 
  C358     1.0000 0.50000  0.11720  0.38280  Biso   1.000  C 
  O139     1.0000 0.50000  0.13260  0.42810  Biso   1.000  O 
  C359     1.0000 0.50000  0.15650  0.34350  Biso   1.000  C 
  C360     1.0000 0.50000  0.14470  0.29420  Biso   1.000  C 
  C361     1.0000 0.50000  0.20580  0.35530  Biso   1.000  C 
  C362     1.0000 0.50000  0.17950  0.25800  Biso   1.000  C 
  H295     1.0000 0.50000  0.11140  0.28510  Biso   1.000  H 
  C363     1.0000 0.50000  0.24200  0.32050  Biso   1.000  C 
  H296     1.0000 0.50000  0.21490  0.38860  Biso   1.000  H 
  C364     1.0000 0.50000  0.23070  0.26930  Biso   1.000  C 
  C365     1.0000 0.50000  0.26930  0.23070  Biso   1.000  C 
  H297     1.0000 0.50000  0.16950  0.22490  Biso   1.000  H 
  C366     1.0000 0.50000  0.25800  0.17950  Biso   1.000  C 
  H298     1.0000 0.50000  0.27510  0.33050  Biso   1.000  H 
  C367     1.0000 0.50000  0.32050  0.24200  Biso   1.000  C 
  C368     1.0000 0.50000  0.29420  0.14470  Biso   1.000  C 
  H299     1.0000 0.50000  0.22490  0.16950  Biso   1.000  H 
  C369     1.0000 0.50000  0.35530  0.20580  Biso   1.000  C 
  H300     1.0000 0.50000  0.33050  0.27510  Biso   1.000  H 
  C370     1.0000 0.50000  0.34350  0.15650  Biso   1.000  C 
  C371     1.0000 0.50000  0.38280  0.11720  Biso   1.000  C 
  O140     1.0000 0.50546  0.28009  0.09095  Biso   1.000  O 
  H301     1.0000 0.50000  0.38860  0.21490  Biso   1.000  H 
  O141     1.0000 0.50000  0.36740  0.07190  Biso   1.000  O 
  O142     1.0000 0.50000  0.42810  0.13260  Biso   1.000  O 
  C372     1.0000 0.46138  0.27093  0.06630  Biso   1.000  C 
  C373     1.0000 0.45487  0.21348  0.05850  Biso   1.000  C 
  H302     1.0000 0.46796  0.28713  0.02905  Biso   1.000  H 
  H303     1.0000 0.42896  0.29057  0.08300  Biso   1.000  H 
  H304     1.0000 0.44958  0.20506  0.01791  Biso   1.000  H 
  C374     1.0000 0.41030  0.19500  0.08472  Biso   1.000  C 
  H305     1.0000 0.48954  0.19511  0.07258  Biso   1.000  H 
  H306     1.0000 0.39271  0.16669  0.06149  Biso   1.000  H 
  H307     1.0000 0.38204  0.22492  0.08983  Biso   1.000  H 
  H308     1.0000 0.41803  0.17904  0.12109  Biso   1.000  H 
  O143     1.0000 0.50000  0.92810  0.36740  Biso   1.000  O 
  C375     1.0000 0.50000  0.88280  0.38280  Biso   1.000  C 
  O144     1.0000 0.50000  0.86740  0.42810  Biso   1.000  O 
  C376     1.0000 0.50000  0.84350  0.34350  Biso   1.000  C 
  C377     1.0000 0.50000  0.85530  0.29420  Biso   1.000  C 
  C378     1.0000 0.50000  0.79420  0.35530  Biso   1.000  C 
  C379     1.0000 0.50000  0.82050  0.25800  Biso   1.000  C 
  H309     1.0000 0.50000  0.88860  0.28510  Biso   1.000  H 
  C380     1.0000 0.50000  0.75800  0.32050  Biso   1.000  C 
  H310     1.0000 0.50000  0.78510  0.38860  Biso   1.000  H 
  C381     1.0000 0.50000  0.76930  0.26930  Biso   1.000  C 
  C382     1.0000 0.50000  0.73070  0.23070  Biso   1.000  C 
  H311     1.0000 0.50000  0.83050  0.22490  Biso   1.000  H 
  C383     1.0000 0.50000  0.74200  0.17950  Biso   1.000  C 
  H312     1.0000 0.50000  0.72490  0.33050  Biso   1.000  H 
  C384     1.0000 0.50000  0.67950  0.24200  Biso   1.000  C 
  C385     1.0000 0.50000  0.70580  0.14470  Biso   1.000  C 
  H313     1.0000 0.50000  0.77510  0.16950  Biso   1.000  H 
  C386     1.0000 0.50000  0.64470  0.20580  Biso   1.000  C 
  H314     1.0000 0.50000  0.66950  0.27510  Biso   1.000  H 
  C387     1.0000 0.50000  0.65650  0.15650  Biso   1.000  C 
  C388     1.0000 0.50000  0.61720  0.11720  Biso   1.000  C 
  O145     1.0000 0.49454  0.71991  0.09095  Biso   1.000  O 
  H315     1.0000 0.50000  0.61140  0.21490  Biso   1.000  H 
  O146     1.0000 0.50000  0.63260  0.07190  Biso   1.000  O 
  O147     1.0000 0.50000  0.57190  0.13260  Biso   1.000  O 
  C389     1.0000 0.53862  0.72907  0.06630  Biso   1.000  C 
  C390     1.0000 0.54513  0.78652  0.05850  Biso   1.000  C 
  H316     1.0000 0.53204  0.71287  0.02905  Biso   1.000  H 
  H317     1.0000 0.57104  0.70943  0.08300  Biso   1.000  H 
  H318     1.0000 0.55042  0.79494  0.01791  Biso   1.000  H 
  C391     1.0000 0.58970  0.80500  0.08472  Biso   1.000  C 
  H319     1.0000 0.51046  0.80489  0.07258  Biso   1.000  H 
  H320     1.0000 0.60729  0.83331  0.06149  Biso   1.000  H 
  H321     1.0000 0.61796  0.77508  0.08983  Biso   1.000  H 
  H322     1.0000 0.58197  0.82096  0.12109  Biso   1.000  H 
  O148     1.0000 0.50000  0.92810  0.63260  Biso   1.000  O 
  C392     1.0000 0.50000  0.88280  0.61720  Biso   1.000  C 
  O149     1.0000 0.50000  0.86740  0.57190  Biso   1.000  O 
  C393     1.0000 0.50000  0.84350  0.65650  Biso   1.000  C 
  C394     1.0000 0.50000  0.85530  0.70580  Biso   1.000  C 
  C395     1.0000 0.50000  0.79420  0.64470  Biso   1.000  C 
  C396     1.0000 0.50000  0.82050  0.74200  Biso   1.000  C 
  H323     1.0000 0.50000  0.88860  0.71490  Biso   1.000  H 
  C397     1.0000 0.50000  0.75800  0.67950  Biso   1.000  C 
  H324     1.0000 0.50000  0.78510  0.61140  Biso   1.000  H 
  C398     1.0000 0.50000  0.76930  0.73070  Biso   1.000  C 
  C399     1.0000 0.50000  0.73070  0.76930  Biso   1.000  C 
  H325     1.0000 0.50000  0.83050  0.77510  Biso   1.000  H 
  C400     1.0000 0.50000  0.74200  0.82050  Biso   1.000  C 
  H326     1.0000 0.50000  0.72490  0.66950  Biso   1.000  H 
  C401     1.0000 0.50000  0.67950  0.75800  Biso   1.000  C 
  C402     1.0000 0.50000  0.70580  0.85530  Biso   1.000  C 
  H327     1.0000 0.50000  0.77510  0.83050  Biso   1.000  H 
  C403     1.0000 0.50000  0.64470  0.79420  Biso   1.000  C 
  H328     1.0000 0.50000  0.66950  0.72490  Biso   1.000  H 
  C404     1.0000 0.50000  0.65650  0.84350  Biso   1.000  C 
  C405     1.0000 0.50000  0.61720  0.88280  Biso   1.000  C 
  O150     1.0000 0.50546  0.71991  0.90905  Biso   1.000  O 
  H329     1.0000 0.50000  0.61140  0.78510  Biso   1.000  H 
  O151     1.0000 0.50000  0.63260  0.92810  Biso   1.000  O 
  O152     1.0000 0.50000  0.57190  0.86740  Biso   1.000  O 
  C406     1.0000 0.46138  0.72907  0.93370  Biso   1.000  C 
  C407     1.0000 0.45487  0.78652  0.94150  Biso   1.000  C 
  H330     1.0000 0.46796  0.71287  0.97095  Biso   1.000  H 
  H331     1.0000 0.42896  0.70943  0.91700  Biso   1.000  H 
  H332     1.0000 0.44958  0.79494  0.98209  Biso   1.000  H 
  C408     1.0000 0.41030  0.80500  0.91528  Biso   1.000  C 
  H333     1.0000 0.48954  0.80489  0.92742  Biso   1.000  H 
  H334     1.0000 0.39271  0.83331  0.93851  Biso   1.000  H 
  H335     1.0000 0.38204  0.77508  0.91017  Biso   1.000  H 
  H336     1.0000 0.41803  0.82096  0.87891  Biso   1.000  H 
