data_image0
_cell_length_a       20.7004
_cell_length_b       20.7004
_cell_length_c       20.7004
_cell_angle_alpha    90
_cell_angle_beta     90
_cell_angle_gamma    90

_symmetry_space_group_name_H-M    "P 1"
_symmetry_int_tables_number       1

loop_
  _symmetry_equiv_pos_as_xyz
  'x, y, z'

loop_
  _atom_site_label
  _atom_site_occupancy
  _atom_site_fract_x
  _atom_site_fract_y
  _atom_site_fract_z
  _atom_site_thermal_displace_type
  _atom_site_B_iso_or_equiv
  _atom_site_type_symbol
  Zr1      1.0000 0.11989  0.00000  0.00000  Biso   1.000  Zr
  Zr2      1.0000 0.11989  0.50000  0.50000  Biso   1.000  Zr
  Zr3      1.0000 0.61989  0.00000  0.50000  Biso   1.000  Zr
  Zr4      1.0000 0.61989  0.50000  0.00000  Biso   1.000  Zr
  Zr5      1.0000 0.88011  0.00000  0.00000  Biso   1.000  Zr
  Zr6      1.0000 0.88011  0.50000  0.50000  Biso   1.000  Zr
  Zr7      1.0000 0.38011  0.00000  0.50000  Biso   1.000  Zr
  Zr8      1.0000 0.38011  0.50000  0.00000  Biso   1.000  Zr
  Zr9      1.0000 0.00000  0.11989  0.00000  Biso   1.000  Zr
  Zr10     1.0000 0.00000  0.61989  0.50000  Biso   1.000  Zr
  Zr11     1.0000 0.50000  0.11989  0.50000  Biso   1.000  Zr
  Zr12     1.0000 0.50000  0.61989  0.00000  Biso   1.000  Zr
  Zr13     1.0000 0.00000  0.88011  0.00000  Biso   1.000  Zr
  Zr14     1.0000 0.00000  0.38011  0.50000  Biso   1.000  Zr
  Zr15     1.0000 0.50000  0.88011  0.50000  Biso   1.000  Zr
  Zr16     1.0000 0.50000  0.38011  0.00000  Biso   1.000  Zr
  Zr17     1.0000 0.00000  0.00000  0.11989  Biso   1.000  Zr
  Zr18     1.0000 0.00000  0.50000  0.61989  Biso   1.000  Zr
  Zr19     1.0000 0.50000  0.00000  0.61989  Biso   1.000  Zr
  Zr20     1.0000 0.50000  0.50000  0.11989  Biso   1.000  Zr
  Zr21     1.0000 0.00000  0.00000  0.88011  Biso   1.000  Zr
  Zr22     1.0000 0.00000  0.50000  0.38011  Biso   1.000  Zr
  Zr23     1.0000 0.50000  0.00000  0.38011  Biso   1.000  Zr
  Zr24     1.0000 0.50000  0.50000  0.88011  Biso   1.000  Zr
  O1       1.0000 0.05610  0.44390  0.44390  Biso   1.000  O 
  O2       1.0000 0.55610  0.94390  0.44390  Biso   1.000  O 
  O3       1.0000 0.55610  0.44390  0.94390  Biso   1.000  O 
  O4       1.0000 0.44390  0.05610  0.44390  Biso   1.000  O 
  O5       1.0000 0.44390  0.55610  0.94390  Biso   1.000  O 
  O6       1.0000 0.94390  0.94390  0.05610  Biso   1.000  O 
  O7       1.0000 0.94390  0.44390  0.55610  Biso   1.000  O 
  O8       1.0000 0.05610  0.05610  0.05610  Biso   1.000  O 
  O9       1.0000 0.55610  0.55610  0.05610  Biso   1.000  O 
  O10      1.0000 0.94390  0.05610  0.05610  Biso   1.000  O 
  O11      1.0000 0.94390  0.55610  0.55610  Biso   1.000  O 
  O12      1.0000 0.44390  0.05610  0.55610  Biso   1.000  O 
  O13      1.0000 0.44390  0.55610  0.05610  Biso   1.000  O 
  O14      1.0000 0.05610  0.94390  0.05610  Biso   1.000  O 
  O15      1.0000 0.05610  0.44390  0.55610  Biso   1.000  O 
  O16      1.0000 0.55610  0.94390  0.55610  Biso   1.000  O 
  O17      1.0000 0.55610  0.44390  0.05610  Biso   1.000  O 
  O18      1.0000 0.94390  0.94390  0.94390  Biso   1.000  O 
  O19      1.0000 0.94390  0.44390  0.44390  Biso   1.000  O 
  O20      1.0000 0.44390  0.94390  0.44390  Biso   1.000  O 
  O21      1.0000 0.44390  0.44390  0.94390  Biso   1.000  O 
  O22      1.0000 0.05610  0.05610  0.94390  Biso   1.000  O 
  O23      1.0000 0.05610  0.55610  0.44390  Biso   1.000  O 
  O24      1.0000 0.55610  0.05610  0.44390  Biso   1.000  O 
  C1       1.0000 0.15360  0.00000  0.84640  Biso   1.000  C 
  O25      1.0000 0.17046  0.00000  0.90471  Biso   1.000  O 
  O26      1.0000 0.09529  0.00000  0.82954  Biso   1.000  O 
  C2       1.0000 0.20500  0.00000  0.79500  Biso   1.000  C 
  C3       1.0000 0.18437  0.00000  0.73249  Biso   1.000  C 
  H1       1.0000 0.13046  0.00000  0.72128  Biso   1.000  H 
  O27      1.0000 0.21386  0.00561  0.61869  Biso   1.000  O 
  C4       1.0000 0.23249  0.00000  0.68442  Biso   1.000  C 
  C5       1.0000 0.29500  0.00000  0.70500  Biso   1.000  C 
  C6       1.0000 0.31558  0.00000  0.76751  Biso   1.000  C 
  C7       1.0000 0.26751  0.00000  0.81563  Biso   1.000  C 
  O28      1.0000 0.28555  0.98832  0.88147  Biso   1.000  O 
  H2       1.0000 0.36949  0.00000  0.77872  Biso   1.000  H 
  O29      1.0000 0.40470  0.00000  0.67046  Biso   1.000  O 
  C8       1.0000 0.34640  0.00000  0.65360  Biso   1.000  C 
  O30      1.0000 0.32954  0.00000  0.59529  Biso   1.000  O 
  C9       1.0000 0.20785  0.07135  0.61261  Biso   1.000  C 
  C10      1.0000 0.22190  0.11749  0.67656  Biso   1.000  C 
  H3       1.0000 0.24450  0.08298  0.57743  Biso   1.000  H 
  H4       1.0000 0.15795  0.07871  0.59114  Biso   1.000  H 
  H5       1.0000 0.18128  0.09578  0.68917  Biso   1.000  H 
  C11      1.0000 0.23937  0.13075  0.74941  Biso   1.000  C 
  H6       1.0000 0.27057  0.09918  0.66886  Biso   1.000  H 
  H7       1.0000 0.28376  0.11003  0.76112  Biso   1.000  H 
  H8       1.0000 0.24541  0.18030  0.74374  Biso   1.000  H 
  C12      1.0000 0.20242  0.13264  0.81591  Biso   1.000  C 
  C13      1.0000 0.28756  0.92221  0.88144  Biso   1.000  C 
  C14      1.0000 0.23565  0.87905  0.84892  Biso   1.000  C 
  H9       1.0000 0.33869  0.90668  0.88421  Biso   1.000  H 
  H10      1.0000 0.26774  0.92050  0.92772  Biso   1.000  H 
  H11      1.0000 0.18842  0.89191  0.86935  Biso   1.000  H 
  C15      1.0000 0.22029  0.85371  0.77468  Biso   1.000  C 
  H12      1.0000 0.24787  0.83693  0.87116  Biso   1.000  H 
  H13      1.0000 0.22853  0.80225  0.77070  Biso   1.000  H 
  H14      1.0000 0.16665  0.86052  0.77223  Biso   1.000  H 
  C16      1.0000 0.25771  0.86807  0.71126  Biso   1.000  C 
  H15      1.0000 0.29642  0.89297  0.72813  Biso   1.000  H 
  C17      1.0000 0.27198  0.86291  0.63733  Biso   1.000  C 
  H16      1.0000 0.22273  0.89619  0.69776  Biso   1.000  H 
  H17      1.0000 0.18575  0.17778  0.82298  Biso   1.000  H 
  C18      1.0000 0.24578  0.12915  0.87234  Biso   1.000  C 
  H18      1.0000 0.15933  0.10539  0.82233  Biso   1.000  H 
  H19      1.0000 0.28267  0.09364  0.87292  Biso   1.000  H 
  H20      1.0000 0.26773  0.17318  0.87995  Biso   1.000  H 
  H21      1.0000 0.21519  0.11772  0.91027  Biso   1.000  H 
  H22      1.0000 0.24416  0.89569  0.60617  Biso   1.000  H 
  H23      1.0000 0.26369  0.81516  0.61952  Biso   1.000  H 
  H24      1.0000 0.32404  0.87507  0.62715  Biso   1.000  H 
  C19      1.0000 0.15360  0.50000  0.34640  Biso   1.000  C 
  O31      1.0000 0.17046  0.50000  0.40471  Biso   1.000  O 
  O32      1.0000 0.09529  0.50000  0.32954  Biso   1.000  O 
  C20      1.0000 0.20500  0.50000  0.29500  Biso   1.000  C 
  C21      1.0000 0.18437  0.50000  0.23249  Biso   1.000  C 
  H25      1.0000 0.13046  0.50000  0.22128  Biso   1.000  H 
  O33      1.0000 0.21519  0.50950  0.11929  Biso   1.000  O 
  C22      1.0000 0.23249  0.50000  0.18442  Biso   1.000  C 
  C23      1.0000 0.29500  0.50000  0.20500  Biso   1.000  C 
  C24      1.0000 0.31558  0.50000  0.26751  Biso   1.000  C 
  C25      1.0000 0.26751  0.50000  0.31563  Biso   1.000  C 
  O34      1.0000 0.28358  0.50209  0.38171  Biso   1.000  O 
  H26      1.0000 0.36949  0.50000  0.27872  Biso   1.000  H 
  O35      1.0000 0.40470  0.50000  0.17046  Biso   1.000  O 
  C26      1.0000 0.34640  0.50000  0.15360  Biso   1.000  C 
  O36      1.0000 0.32954  0.50000  0.09529  Biso   1.000  O 
  C27      1.0000 0.21139  0.57620  0.11524  Biso   1.000  C 
  C28      1.0000 0.22595  0.62092  0.17978  Biso   1.000  C 
  H27      1.0000 0.24996  0.58624  0.08013  Biso   1.000  H 
  H28      1.0000 0.16746  0.58540  0.08992  Biso   1.000  H 
  H29      1.0000 0.18724  0.59923  0.19492  Biso   1.000  H 
  C29      1.0000 0.23744  0.62967  0.25516  Biso   1.000  C 
  H30      1.0000 0.27390  0.60222  0.17372  Biso   1.000  H 
  H31      1.0000 0.28128  0.60863  0.26689  Biso   1.000  H 
  H32      1.0000 0.24219  0.67968  0.25007  Biso   1.000  H 
  C30      1.0000 0.20302  0.63898  0.32050  Biso   1.000  C 
  C31      1.0000 0.30170  0.43906  0.40024  Biso   1.000  C 
  C32      1.0000 0.24694  0.38890  0.38182  Biso   1.000  C 
  H33      1.0000 0.34851  0.42918  0.37688  Biso   1.000  H 
  H34      1.0000 0.31088  0.44329  0.45165  Biso   1.000  H 
  H35      1.0000 0.20063  0.40458  0.39777  Biso   1.000  H 
  C33      1.0000 0.24717  0.36395  0.31613  Biso   1.000  C 
  H36      1.0000 0.25004  0.34534  0.39997  Biso   1.000  H 
  H37      1.0000 0.26558  0.39430  0.28000  Biso   1.000  H 
  H38      1.0000 0.27714  0.32146  0.31427  Biso   1.000  H 
  C34      1.0000 0.17755  0.35464  0.29678  Biso   1.000  C 
  H39      1.0000 0.16443  0.39420  0.26694  Biso   1.000  H 
  C35      1.0000 0.17621  0.30400  0.25205  Biso   1.000  C 
  H40      1.0000 0.13966  0.35422  0.33353  Biso   1.000  H 
  H41      1.0000 0.18599  0.68649  0.33039  Biso   1.000  H 
  C36      1.0000 0.24682  0.63140  0.37551  Biso   1.000  C 
  H42      1.0000 0.16173  0.60944  0.32481  Biso   1.000  H 
  H43      1.0000 0.29504  0.61394  0.37111  Biso   1.000  H 
  H44      1.0000 0.25088  0.67958  0.39466  Biso   1.000  H 
  H45      1.0000 0.22315  0.59833  0.40694  Biso   1.000  H 
  H46      1.0000 0.19467  0.32147  0.20666  Biso   1.000  H 
  H47      1.0000 0.12671  0.29005  0.25059  Biso   1.000  H 
  H48      1.0000 0.20277  0.25992  0.26649  Biso   1.000  H 
  C37      1.0000 0.65360  0.00000  0.34640  Biso   1.000  C 
  O37      1.0000 0.67046  0.00000  0.40471  Biso   1.000  O 
  O38      1.0000 0.59529  0.00000  0.32954  Biso   1.000  O 
  C38      1.0000 0.70500  0.00000  0.29500  Biso   1.000  C 
  C39      1.0000 0.68437  0.00000  0.23249  Biso   1.000  C 
  H49      1.0000 0.63046  0.00000  0.22128  Biso   1.000  H 
  O39      1.0000 0.71283  0.00579  0.11965  Biso   1.000  O 
  C40      1.0000 0.73248  0.00000  0.18442  Biso   1.000  C 
  C41      1.0000 0.79499  0.00000  0.20500  Biso   1.000  C 
  C42      1.0000 0.81558  0.00000  0.26751  Biso   1.000  C 
  C43      1.0000 0.76751  0.00000  0.31563  Biso   1.000  C 
  O40      1.0000 0.78145  0.98787  0.37948  Biso   1.000  O 
  H50      1.0000 0.86949  0.00000  0.27872  Biso   1.000  H 
  O41      1.0000 0.90470  0.00000  0.17046  Biso   1.000  O 
  C44      1.0000 0.84639  0.00000  0.15360  Biso   1.000  C 
  O42      1.0000 0.82953  0.00000  0.09529  Biso   1.000  O 
  C45      1.0000 0.71025  0.07144  0.11146  Biso   1.000  C 
  C46      1.0000 0.72275  0.11975  0.17440  Biso   1.000  C 
  H51      1.0000 0.74613  0.07915  0.07380  Biso   1.000  H 
  H52      1.0000 0.66260  0.07810  0.08760  Biso   1.000  H 
  H53      1.0000 0.68384  0.09576  0.18467  Biso   1.000  H 
  C47      1.0000 0.73380  0.13290  0.24644  Biso   1.000  C 
  H54      1.0000 0.77040  0.10398  0.16711  Biso   1.000  H 
  H55      1.0000 0.76738  0.10243  0.25985  Biso   1.000  H 
  H56      1.0000 0.75160  0.17979  0.25059  Biso   1.000  H 
  C48      1.0000 0.69911  0.13258  0.31281  Biso   1.000  C 
  C49      1.0000 0.78469  0.92245  0.37852  Biso   1.000  C 
  C50      1.0000 0.72642  0.87865  0.35303  Biso   1.000  C 
  H57      1.0000 0.82885  0.90862  0.35847  Biso   1.000  H 
  H58      1.0000 0.78748  0.92264  0.42899  Biso   1.000  H 
  H59      1.0000 0.68081  0.89500  0.37274  Biso   1.000  H 
  C51      1.0000 0.71413  0.84266  0.28340  Biso   1.000  C 
  H60      1.0000 0.73862  0.84254  0.38461  Biso   1.000  H 
  H61      1.0000 0.72929  0.79471  0.28267  Biso   1.000  H 
  H62      1.0000 0.66231  0.84036  0.28252  Biso   1.000  H 
  C52      1.0000 0.72579  0.87162  0.21787  Biso   1.000  C 
  H63      1.0000 0.75077  0.90560  0.24135  Biso   1.000  H 
  C53      1.0000 0.76393  0.86528  0.15171  Biso   1.000  C 
  H64      1.0000 0.67904  0.88787  0.20322  Biso   1.000  H 
  H65      1.0000 0.68445  0.17954  0.32323  Biso   1.000  H 
  C54      1.0000 0.74351  0.12453  0.37084  Biso   1.000  C 
  H66      1.0000 0.65578  0.10585  0.31559  Biso   1.000  H 
  H67      1.0000 0.78633  0.09368  0.37584  Biso   1.000  H 
  H68      1.0000 0.76271  0.16961  0.37935  Biso   1.000  H 
  H69      1.0000 0.71284  0.11156  0.40832  Biso   1.000  H 
  H70      1.0000 0.80390  0.89593  0.15227  Biso   1.000  H 
  H71      1.0000 0.73485  0.88435  0.11291  Biso   1.000  H 
  H72      1.0000 0.78315  0.81991  0.13685  Biso   1.000  H 
  C55      1.0000 0.65360  0.50000  0.84640  Biso   1.000  C 
  O43      1.0000 0.67046  0.50000  0.90471  Biso   1.000  O 
  O44      1.0000 0.59529  0.50000  0.82954  Biso   1.000  O 
  C56      1.0000 0.70500  0.50000  0.79500  Biso   1.000  C 
  C57      1.0000 0.68437  0.50000  0.73249  Biso   1.000  C 
  H73      1.0000 0.63046  0.50000  0.72128  Biso   1.000  H 
  O45      1.0000 0.71365  0.50744  0.61880  Biso   1.000  O 
  C58      1.0000 0.73248  0.50000  0.68442  Biso   1.000  C 
  C59      1.0000 0.79499  0.50000  0.70500  Biso   1.000  C 
  C60      1.0000 0.81558  0.50000  0.76751  Biso   1.000  C 
  C61      1.0000 0.76751  0.50000  0.81563  Biso   1.000  C 
  O46      1.0000 0.78241  0.47901  0.87700  Biso   1.000  O 
  H74      1.0000 0.86949  0.50000  0.77872  Biso   1.000  H 
  O47      1.0000 0.90470  0.50000  0.67046  Biso   1.000  O 
  C62      1.0000 0.84639  0.50000  0.65360  Biso   1.000  C 
  O48      1.0000 0.82953  0.50000  0.59529  Biso   1.000  O 
  C63      1.0000 0.70681  0.57203  0.61413  Biso   1.000  C 
  C64      1.0000 0.72334  0.61808  0.67428  Biso   1.000  C 
  H75      1.0000 0.74176  0.57917  0.57040  Biso   1.000  H 
  H76      1.0000 0.65720  0.58266  0.59538  Biso   1.000  H 
  H77      1.0000 0.68371  0.59894  0.68865  Biso   1.000  H 
  C65      1.0000 0.73837  0.63346  0.74818  Biso   1.000  C 
  H78      1.0000 0.77558  0.59858  0.66451  Biso   1.000  H 
  H79      1.0000 0.77545  0.60636  0.76075  Biso   1.000  H 
  H80      1.0000 0.75574  0.67657  0.74524  Biso   1.000  H 
  C66      1.0000 0.70425  0.63085  0.81254  Biso   1.000  C 
  C67      1.0000 0.77719  0.41141  0.87079  Biso   1.000  C 
  C68      1.0000 0.71914  0.37209  0.83807  Biso   1.000  C 
  H81      1.0000 0.82399  0.39378  0.86001  Biso   1.000  H 
  H82      1.0000 0.76750  0.40392  0.91927  Biso   1.000  H 
  H83      1.0000 0.67171  0.38670  0.85696  Biso   1.000  H 
  C69      1.0000 0.70907  0.33879  0.76942  Biso   1.000  C 
  H84      1.0000 0.73106  0.33167  0.86441  Biso   1.000  H 
  H85      1.0000 0.72304  0.29264  0.76301  Biso   1.000  H 
  H86      1.0000 0.65516  0.33722  0.76790  Biso   1.000  H 
  C70      1.0000 0.73098  0.37201  0.70888  Biso   1.000  C 
  H87      1.0000 0.75887  0.39977  0.73704  Biso   1.000  H 
  C71      1.0000 0.77164  0.36811  0.64799  Biso   1.000  C 
  H88      1.0000 0.68705  0.39430  0.69726  Biso   1.000  H 
  H89      1.0000 0.68281  0.67797  0.81794  Biso   1.000  H 
  C72      1.0000 0.74085  0.62441  0.87396  Biso   1.000  C 
  H90      1.0000 0.66111  0.60556  0.80535  Biso   1.000  H 
  H91      1.0000 0.77729  0.58839  0.88316  Biso   1.000  H 
  H92      1.0000 0.76492  0.67007  0.88706  Biso   1.000  H 
  H93      1.0000 0.70249  0.61274  0.90456  Biso   1.000  H 
  H94      1.0000 0.82100  0.37344  0.65244  Biso   1.000  H 
  H95      1.0000 0.76163  0.40776  0.61509  Biso   1.000  H 
  H96      1.0000 0.76542  0.32724  0.61984  Biso   1.000  H 
  C73      1.0000 0.84640  0.00000  0.84640  Biso   1.000  C 
  O49      1.0000 0.82954  0.00000  0.90471  Biso   1.000  O 
  O50      1.0000 0.90471  0.00000  0.82954  Biso   1.000  O 
  C74      1.0000 0.79500  0.00000  0.79500  Biso   1.000  C 
  C75      1.0000 0.81563  0.00000  0.73249  Biso   1.000  C 
  H97      1.0000 0.86954  0.00000  0.72128  Biso   1.000  H 
  O51      1.0000 0.78313  0.00645  0.61866  Biso   1.000  O 
  C76      1.0000 0.76752  0.00000  0.68442  Biso   1.000  C 
  C77      1.0000 0.70501  0.00000  0.70500  Biso   1.000  C 
  C78      1.0000 0.68442  0.00000  0.76751  Biso   1.000  C 
  C79      1.0000 0.73249  0.00000  0.81563  Biso   1.000  C 
  O52      1.0000 0.71688  0.03156  0.87796  Biso   1.000  O 
  H98      1.0000 0.63051  0.00000  0.77872  Biso   1.000  H 
  O53      1.0000 0.59530  0.00000  0.67046  Biso   1.000  O 
  C80      1.0000 0.65361  0.00000  0.65360  Biso   1.000  C 
  O54      1.0000 0.67047  0.00000  0.59529  Biso   1.000  O 
  C81      1.0000 0.79093  0.95044  0.58617  Biso   1.000  C 
  C82      1.0000 0.78515  0.88560  0.62343  Biso   1.000  C 
  H99      1.0000 0.75573  0.95501  0.54996  Biso   1.000  H 
  H100     1.0000 0.83766  0.94970  0.56225  Biso   1.000  H 
  H101     1.0000 0.81649  0.85452  0.59832  Biso   1.000  H 
  C83      1.0000 0.79657  0.86826  0.70117  Biso   1.000  C 
  H102     1.0000 0.73518  0.87277  0.61676  Biso   1.000  H 
  H103     1.0000 0.77165  0.89804  0.73142  Biso   1.000  H 
  H104     1.0000 0.77802  0.82267  0.71295  Biso   1.000  H 
  C84      1.0000 0.86421  0.87521  0.73130  Biso   1.000  C 
  C85      1.0000 0.65955  0.01656  0.91188  Biso   1.000  C 
  C86      1.0000 0.62019  0.07679  0.92086  Biso   1.000  C 
  H105     1.0000 0.62534  0.98045  0.88926  Biso   1.000  H 
  H106     1.0000 0.67643  0.00135  0.96183  Biso   1.000  H 
  H107     1.0000 0.64546  0.11612  0.94403  Biso   1.000  H 
  C87      1.0000 0.59318  0.09932  0.85864  Biso   1.000  C 
  H108     1.0000 0.58128  0.06263  0.95517  Biso   1.000  H 
  H109     1.0000 0.56718  0.05609  0.84226  Biso   1.000  H 
  H110     1.0000 0.55783  0.13522  0.87657  Biso   1.000  H 
  C88      1.0000 0.63241  0.12097  0.79794  Biso   1.000  C 
  H111     1.0000 0.61466  0.08860  0.76010  Biso   1.000  H 
  C89      1.0000 0.63282  0.17660  0.75064  Biso   1.000  C 
  H112     1.0000 0.68364  0.11137  0.80541  Biso   1.000  H 
  H113     1.0000 0.87816  0.82811  0.74125  Biso   1.000  H 
  C90      1.0000 0.91014  0.90726  0.68287  Biso   1.000  C 
  H114     1.0000 0.86280  0.89047  0.78450  Biso   1.000  H 
  H115     1.0000 0.94539  0.93311  0.71013  Biso   1.000  H 
  H116     1.0000 0.89456  0.94044  0.64742  Biso   1.000  H 
  H117     1.0000 0.93019  0.86864  0.65359  Biso   1.000  H 
  H118     1.0000 0.61874  0.16077  0.70048  Biso   1.000  H 
  H119     1.0000 0.68247  0.19272  0.74864  Biso   1.000  H 
  H120     1.0000 0.60404  0.21797  0.75786  Biso   1.000  H 
  C91      1.0000 0.84640  0.50000  0.34640  Biso   1.000  C 
  O55      1.0000 0.82954  0.50000  0.40471  Biso   1.000  O 
  O56      1.0000 0.90471  0.50000  0.32954  Biso   1.000  O 
  C92      1.0000 0.79500  0.50000  0.29500  Biso   1.000  C 
  C93      1.0000 0.81563  0.50000  0.23249  Biso   1.000  C 
  H121     1.0000 0.86954  0.50000  0.22128  Biso   1.000  H 
  O57      1.0000 0.78272  0.51282  0.11704  Biso   1.000  O 
  C94      1.0000 0.76752  0.50000  0.18442  Biso   1.000  C 
  C95      1.0000 0.70501  0.50000  0.20500  Biso   1.000  C 
  C96      1.0000 0.68442  0.50000  0.26751  Biso   1.000  C 
  C97      1.0000 0.73249  0.50000  0.31563  Biso   1.000  C 
  O58      1.0000 0.71920  0.53804  0.37673  Biso   1.000  O 
  H122     1.0000 0.63051  0.50000  0.27872  Biso   1.000  H 
  O59      1.0000 0.59530  0.50000  0.17046  Biso   1.000  O 
  C98      1.0000 0.65361  0.50000  0.15360  Biso   1.000  C 
  O60      1.0000 0.67047  0.50000  0.09529  Biso   1.000  O 
  C99      1.0000 0.80187  0.45628  0.08547  Biso   1.000  C 
  C100     1.0000 0.79060  0.39038  0.12144  Biso   1.000  C 
  H123     1.0000 0.77336  0.45579  0.04078  Biso   1.000  H 
  H124     1.0000 0.85162  0.46203  0.06657  Biso   1.000  H 
  H125     1.0000 0.82763  0.35951  0.09901  Biso   1.000  H 
  C101     1.0000 0.79982  0.37137  0.19549  Biso   1.000  C 
  H126     1.0000 0.74089  0.37729  0.10881  Biso   1.000  H 
  H127     1.0000 0.76052  0.39291  0.22286  Biso   1.000  H 
  H128     1.0000 0.79206  0.32340  0.20723  Biso   1.000  H 
  C102     1.0000 0.86374  0.38070  0.23110  Biso   1.000  C 
  C103     1.0000 0.66303  0.52516  0.41498  Biso   1.000  C 
  C104     1.0000 0.61775  0.58091  0.42634  Biso   1.000  C 
  H129     1.0000 0.63026  0.49064  0.39299  Biso   1.000  H 
  H130     1.0000 0.67830  0.50611  0.46182  Biso   1.000  H 
  H131     1.0000 0.63605  0.61627  0.45764  Biso   1.000  H 
  C105     1.0000 0.59232  0.61092  0.36505  Biso   1.000  C 
  H132     1.0000 0.57280  0.56035  0.45114  Biso   1.000  H 
  H133     1.0000 0.56186  0.56935  0.35360  Biso   1.000  H 
  H134     1.0000 0.56139  0.64939  0.37813  Biso   1.000  H 
  C106     1.0000 0.63655  0.62033  0.30294  Biso   1.000  C 
  H135     1.0000 0.61106  0.58749  0.27110  Biso   1.000  H 
  C107     1.0000 0.64407  0.66982  0.25198  Biso   1.000  C 
  H136     1.0000 0.68652  0.61022  0.31024  Biso   1.000  H 
  H137     1.0000 0.88234  0.33464  0.24502  Biso   1.000  H 
  C108     1.0000 0.91072  0.40711  0.18345  Biso   1.000  C 
  H138     1.0000 0.85950  0.40242  0.27856  Biso   1.000  H 
  H139     1.0000 0.94607  0.42989  0.21587  Biso   1.000  H 
  H140     1.0000 0.89609  0.44271  0.14946  Biso   1.000  H 
  H141     1.0000 0.92507  0.36608  0.15768  Biso   1.000  H 
  H142     1.0000 0.65291  0.64369  0.20488  Biso   1.000  H 
  H143     1.0000 0.68702  0.69768  0.26318  Biso   1.000  H 
  H144     1.0000 0.60690  0.70268  0.24392  Biso   1.000  H 
  C109     1.0000 0.34640  0.00000  0.34640  Biso   1.000  C 
  O61      1.0000 0.32954  0.00000  0.40471  Biso   1.000  O 
  O62      1.0000 0.40471  0.00000  0.32954  Biso   1.000  O 
  C110     1.0000 0.29500  0.00000  0.29500  Biso   1.000  C 
  C111     1.0000 0.31563  0.00000  0.23249  Biso   1.000  C 
  H145     1.0000 0.36954  0.00000  0.22128  Biso   1.000  H 
  O63      1.0000 0.28063  0.00608  0.11824  Biso   1.000  O 
  C112     1.0000 0.26751  0.00000  0.18442  Biso   1.000  C 
  C113     1.0000 0.20500  0.00000  0.20500  Biso   1.000  C 
  C114     1.0000 0.18442  0.00000  0.26751  Biso   1.000  C 
  C115     1.0000 0.23249  0.00000  0.31563  Biso   1.000  C 
  O64      1.0000 0.21981  0.02970  0.37965  Biso   1.000  O 
  H146     1.0000 0.13051  0.00000  0.27872  Biso   1.000  H 
  O65      1.0000 0.09530  0.00000  0.17046  Biso   1.000  O 
  C116     1.0000 0.15360  0.00000  0.15360  Biso   1.000  C 
  O66      1.0000 0.17046  0.00000  0.09529  Biso   1.000  O 
  C117     1.0000 0.30343  0.95181  0.08894  Biso   1.000  C 
  C118     1.0000 0.28852  0.88912  0.12666  Biso   1.000  C 
  H147     1.0000 0.27638  0.95394  0.04251  Biso   1.000  H 
  H148     1.0000 0.35456  0.95752  0.07649  Biso   1.000  H 
  H149     1.0000 0.32051  0.85822  0.10116  Biso   1.000  H 
  C119     1.0000 0.29709  0.86858  0.20191  Biso   1.000  C 
  H150     1.0000 0.23751  0.87893  0.11361  Biso   1.000  H 
  H151     1.0000 0.25996  0.89045  0.23002  Biso   1.000  H 
  H152     1.0000 0.28824  0.82040  0.20589  Biso   1.000  H 
  C120     1.0000 0.35808  0.87042  0.23896  Biso   1.000  C 
  C121     1.0000 0.16247  0.00822  0.41112  Biso   1.000  C 
  C122     1.0000 0.12166  0.06346  0.43909  Biso   1.000  C 
  H153     1.0000 0.13001  0.98004  0.37936  Biso   1.000  H 
  H154     1.0000 0.17777  0.98048  0.45466  Biso   1.000  H 
  H155     1.0000 0.14664  0.10553  0.45434  Biso   1.000  H 
  C123     1.0000 0.07430  0.09657  0.39286  Biso   1.000  C 
  H156     1.0000 0.09302  0.04115  0.47971  Biso   1.000  H 
  H157     1.0000 0.03122  0.06308  0.39037  Biso   1.000  H 
  H158     1.0000 0.05788  0.14082  0.41427  Biso   1.000  H 
  C124     1.0000 0.10541  0.10448  0.32550  Biso   1.000  C 
  H159     1.0000 0.07953  0.06653  0.30679  Biso   1.000  H 
  C125     1.0000 0.12599  0.14172  0.26408  Biso   1.000  C 
  H160     1.0000 0.15200  0.09323  0.33491  Biso   1.000  H 
  H161     1.0000 0.37364  0.82134  0.25255  Biso   1.000  H 
  C126     1.0000 0.40353  0.89510  0.19449  Biso   1.000  C 
  H162     1.0000 0.35570  0.89776  0.28347  Biso   1.000  H 
  H163     1.0000 0.43806  0.91520  0.22742  Biso   1.000  H 
  H164     1.0000 0.39432  0.93097  0.15936  Biso   1.000  H 
  H165     1.0000 0.41911  0.85594  0.16598  Biso   1.000  H 
  H166     1.0000 0.12453  0.10797  0.22505  Biso   1.000  H 
  H167     1.0000 0.17649  0.15402  0.27017  Biso   1.000  H 
  H168     1.0000 0.10619  0.18656  0.24552  Biso   1.000  H 
  C127     1.0000 0.34640  0.50000  0.84640  Biso   1.000  C 
  O67      1.0000 0.32954  0.50000  0.90471  Biso   1.000  O 
  O68      1.0000 0.40471  0.50000  0.82954  Biso   1.000  O 
  C128     1.0000 0.29500  0.50000  0.79500  Biso   1.000  C 
  C129     1.0000 0.31563  0.50000  0.73249  Biso   1.000  C 
  H169     1.0000 0.36954  0.50000  0.72128  Biso   1.000  H 
  O69      1.0000 0.28134  0.49371  0.62062  Biso   1.000  O 
  C130     1.0000 0.26751  0.50000  0.68442  Biso   1.000  C 
  C131     1.0000 0.20500  0.50000  0.70500  Biso   1.000  C 
  C132     1.0000 0.18442  0.50000  0.76751  Biso   1.000  C 
  C133     1.0000 0.23249  0.50000  0.81563  Biso   1.000  C 
  O70      1.0000 0.21491  0.52980  0.88132  Biso   1.000  O 
  H170     1.0000 0.13051  0.50000  0.77872  Biso   1.000  H 
  O71      1.0000 0.09530  0.50000  0.67046  Biso   1.000  O 
  C134     1.0000 0.15360  0.50000  0.65360  Biso   1.000  C 
  O72      1.0000 0.17046  0.50000  0.59529  Biso   1.000  O 
  C135     1.0000 0.29790  0.43729  0.59760  Biso   1.000  C 
  C136     1.0000 0.27485  0.38119  0.63535  Biso   1.000  C 
  H171     1.0000 0.26922  0.44162  0.55476  Biso   1.000  H 
  H172     1.0000 0.35060  0.43398  0.58462  Biso   1.000  H 
  H173     1.0000 0.30970  0.35017  0.61593  Biso   1.000  H 
  C137     1.0000 0.27953  0.37175  0.70945  Biso   1.000  C 
  H174     1.0000 0.22727  0.37156  0.61455  Biso   1.000  H 
  H175     1.0000 0.24980  0.40198  0.73372  Biso   1.000  H 
  H176     1.0000 0.25983  0.32826  0.72267  Biso   1.000  H 
  C138     1.0000 0.33964  0.36141  0.74697  Biso   1.000  C 
  C139     1.0000 0.15527  0.51608  0.91932  Biso   1.000  C 
  C140     1.0000 0.10799  0.56909  0.94652  Biso   1.000  C 
  H177     1.0000 0.11957  0.48709  0.89339  Biso   1.000  H 
  H178     1.0000 0.17050  0.49288  0.96535  Biso   1.000  H 
  H179     1.0000 0.12740  0.59366  0.98960  Biso   1.000  H 
  C141     1.0000 0.07690  0.61517  0.89755  Biso   1.000  C 
  H180     1.0000 0.06453  0.54038  0.96200  Biso   1.000  H 
  H181     1.0000 0.02544  0.60123  0.89572  Biso   1.000  H 
  H182     1.0000 0.07838  0.65972  0.92243  Biso   1.000  H 
  C142     1.0000 0.11159  0.61122  0.83106  Biso   1.000  C 
  H183     1.0000 0.08873  0.56549  0.82426  Biso   1.000  H 
  C143     1.0000 0.12527  0.63018  0.76126  Biso   1.000  C 
  H184     1.0000 0.16024  0.60772  0.84430  Biso   1.000  H 
  H185     1.0000 0.35132  0.31303  0.75665  Biso   1.000  H 
  C144     1.0000 0.39226  0.38805  0.71167  Biso   1.000  C 
  H186     1.0000 0.33668  0.38529  0.79395  Biso   1.000  H 
  H187     1.0000 0.42616  0.40720  0.74613  Biso   1.000  H 
  H188     1.0000 0.38647  0.42295  0.67602  Biso   1.000  H 
  H189     1.0000 0.41016  0.35115  0.68254  Biso   1.000  H 
  H190     1.0000 0.09918  0.59972  0.72705  Biso   1.000  H 
  H191     1.0000 0.17789  0.62146  0.75196  Biso   1.000  H 
  H192     1.0000 0.11627  0.68163  0.75104  Biso   1.000  H 
  C145     1.0000 0.84640  0.15360  0.00000  Biso   1.000  C 
  O73      1.0000 0.90471  0.17046  0.00000  Biso   1.000  O 
  O74      1.0000 0.82954  0.09529  0.00000  Biso   1.000  O 
  C146     1.0000 0.79500  0.20500  0.00000  Biso   1.000  C 
  C147     1.0000 0.73249  0.18437  0.00000  Biso   1.000  C 
  H193     1.0000 0.72128  0.13046  0.00000  Biso   1.000  H 
  O75      1.0000 0.62096  0.21255  0.00412  Biso   1.000  O 
  C148     1.0000 0.68442  0.23249  0.00000  Biso   1.000  C 
  C149     1.0000 0.70500  0.29500  0.00000  Biso   1.000  C 
  C150     1.0000 0.76751  0.31558  0.00000  Biso   1.000  C 
  C151     1.0000 0.81563  0.26751  0.00000  Biso   1.000  C 
  O76      1.0000 0.87460  0.27922  0.96725  Biso   1.000  O 
  H194     1.0000 0.77872  0.36949  0.00000  Biso   1.000  H 
  O77      1.0000 0.67046  0.40470  0.00000  Biso   1.000  O 
  C152     1.0000 0.65360  0.34640  0.00000  Biso   1.000  C 
  O78      1.0000 0.59529  0.32954  0.00000  Biso   1.000  O 
  C153     1.0000 0.61088  0.21008  0.07050  Biso   1.000  C 
  C154     1.0000 0.67234  0.22103  0.11696  Biso   1.000  C 
  H195     1.0000 0.57413  0.24727  0.07993  Biso   1.000  H 
  H196     1.0000 0.58887  0.16098  0.08210  Biso   1.000  H 
  H197     1.0000 0.68891  0.17908  0.09541  Biso   1.000  H 
  C155     1.0000 0.74621  0.24125  0.12893  Biso   1.000  C 
  H198     1.0000 0.66884  0.26947  0.10213  Biso   1.000  H 
  H199     1.0000 0.76069  0.28342  0.10605  Biso   1.000  H 
  H200     1.0000 0.74319  0.25095  0.17794  Biso   1.000  H 
  C156     1.0000 0.81034  0.20523  0.13318  Biso   1.000  C 
  C157     1.0000 0.85961  0.27474  0.90149  Biso   1.000  C 
  C158     1.0000 0.84673  0.20714  0.87019  Biso   1.000  C 
  H201     1.0000 0.82201  0.30605  0.88986  Biso   1.000  H 
  H202     1.0000 0.90317  0.29407  0.87904  Biso   1.000  H 
  H203     1.0000 0.84073  0.16270  0.89564  Biso   1.000  H 
  C159     1.0000 0.78437  0.20001  0.82978  Biso   1.000  C 
  H204     1.0000 0.88795  0.19807  0.84302  Biso   1.000  H 
  H205     1.0000 0.77774  0.22492  0.78847  Biso   1.000  H 
  H206     1.0000 0.78741  0.14717  0.81643  Biso   1.000  H 
  C160     1.0000 0.72383  0.20648  0.86925  Biso   1.000  C 
  H207     1.0000 0.74310  0.24127  0.90044  Biso   1.000  H 
  C161     1.0000 0.65754  0.24133  0.86596  Biso   1.000  C 
  H208     1.0000 0.72083  0.15958  0.89062  Biso   1.000  H 
  H209     1.0000 0.81976  0.18985  0.17781  Biso   1.000  H 
  C162     1.0000 0.87168  0.24649  0.12063  Biso   1.000  C 
  H210     1.0000 0.81598  0.16114  0.10488  Biso   1.000  H 
  H211     1.0000 0.89254  0.27099  0.07830  Biso   1.000  H 
  H212     1.0000 0.87375  0.27939  0.16047  Biso   1.000  H 
  H213     1.0000 0.90474  0.20863  0.13107  Biso   1.000  H 
  H214     1.0000 0.61832  0.21163  0.87512  Biso   1.000  H 
  H215     1.0000 0.65437  0.25796  0.82352  Biso   1.000  H 
  H216     1.0000 0.64969  0.28380  0.89512  Biso   1.000  H 
  C163     1.0000 0.84640  0.65360  0.50000  Biso   1.000  C 
  O79      1.0000 0.90471  0.67046  0.50000  Biso   1.000  O 
  O80      1.0000 0.82954  0.59529  0.50000  Biso   1.000  O 
  C164     1.0000 0.79500  0.70500  0.50000  Biso   1.000  C 
  C165     1.0000 0.73249  0.68437  0.50000  Biso   1.000  C 
  H217     1.0000 0.72128  0.63046  0.50000  Biso   1.000  H 
  O81      1.0000 0.61983  0.71225  0.51083  Biso   1.000  O 
  C166     1.0000 0.68442  0.73248  0.50000  Biso   1.000  C 
  C167     1.0000 0.70500  0.79499  0.50000  Biso   1.000  C 
  C168     1.0000 0.76751  0.81558  0.50000  Biso   1.000  C 
  C169     1.0000 0.81563  0.76751  0.50000  Biso   1.000  C 
  O82      1.0000 0.88062  0.78498  0.48826  Biso   1.000  O 
  H218     1.0000 0.77872  0.86949  0.50000  Biso   1.000  H 
  O83      1.0000 0.67046  0.90470  0.50000  Biso   1.000  O 
  C170     1.0000 0.65360  0.84639  0.50000  Biso   1.000  C 
  O84      1.0000 0.59529  0.82953  0.50000  Biso   1.000  O 
  C171     1.0000 0.61463  0.71629  0.57759  Biso   1.000  C 
  C172     1.0000 0.67863  0.71952  0.61989  Biso   1.000  C 
  H219     1.0000 0.57935  0.75207  0.59001  Biso   1.000  H 
  H220     1.0000 0.59847  0.67048  0.59364  Biso   1.000  H 
  H221     1.0000 0.68946  0.67981  0.59402  Biso   1.000  H 
  C173     1.0000 0.75083  0.73615  0.63117  Biso   1.000  C 
  H222     1.0000 0.67282  0.76686  0.60251  Biso   1.000  H 
  H223     1.0000 0.75974  0.78035  0.61110  Biso   1.000  H 
  H224     1.0000 0.74408  0.74270  0.67906  Biso   1.000  H 
  C174     1.0000 0.81416  0.70554  0.63466  Biso   1.000  C 
  C175     1.0000 0.87880  0.81335  0.42848  Biso   1.000  C 
  C176     1.0000 0.84052  0.77581  0.37489  Biso   1.000  C 
  H225     1.0000 0.86920  0.86378  0.43521  Biso   1.000  H 
  H226     1.0000 0.92970  0.81266  0.41953  Biso   1.000  H 
  H227     1.0000 0.88097  0.74513  0.36666  Biso   1.000  H 
  C177     1.0000 0.78414  0.72601  0.36252  Biso   1.000  C 
  H228     1.0000 0.83185  0.80880  0.33686  Biso   1.000  H 
  H229     1.0000 0.77948  0.72044  0.31090  Biso   1.000  H 
  H230     1.0000 0.80023  0.67984  0.38391  Biso   1.000  H 
  C178     1.0000 0.71034  0.72453  0.37173  Biso   1.000  C 
  H231     1.0000 0.72669  0.75336  0.40458  Biso   1.000  H 
  C179     1.0000 0.64409  0.75883  0.36745  Biso   1.000  C 
  H232     1.0000 0.69963  0.67633  0.38867  Biso   1.000  H 
  H233     1.0000 0.82335  0.68683  0.68076  Biso   1.000  H 
  C180     1.0000 0.87157  0.74625  0.62060  Biso   1.000  C 
  H234     1.0000 0.81271  0.66671  0.60555  Biso   1.000  H 
  H235     1.0000 0.88742  0.76090  0.66797  Biso   1.000  H 
  H236     1.0000 0.90829  0.71254  0.60960  Biso   1.000  H 
  H237     1.0000 0.88500  0.78678  0.59284  Biso   1.000  H 
  H238     1.0000 0.63985  0.80789  0.38550  Biso   1.000  H 
  H239     1.0000 0.61136  0.73164  0.39835  Biso   1.000  H 
  H240     1.0000 0.62321  0.75892  0.32151  Biso   1.000  H 
  C181     1.0000 0.34640  0.15360  0.50000  Biso   1.000  C 
  O85      1.0000 0.40471  0.17046  0.50000  Biso   1.000  O 
  O86      1.0000 0.32954  0.09529  0.50000  Biso   1.000  O 
  C182     1.0000 0.29500  0.20500  0.50000  Biso   1.000  C 
  C183     1.0000 0.23249  0.18437  0.50000  Biso   1.000  C 
  H241     1.0000 0.22128  0.13046  0.50000  Biso   1.000  H 
  O87      1.0000 0.11902  0.21364  0.50967  Biso   1.000  O 
  C184     1.0000 0.18442  0.23249  0.50000  Biso   1.000  C 
  C185     1.0000 0.20500  0.29500  0.50000  Biso   1.000  C 
  C186     1.0000 0.26751  0.31558  0.50000  Biso   1.000  C 
  C187     1.0000 0.31563  0.26751  0.50000  Biso   1.000  C 
  O88      1.0000 0.37719  0.28284  0.47751  Biso   1.000  O 
  H242     1.0000 0.27872  0.36949  0.50000  Biso   1.000  H 
  O89      1.0000 0.17046  0.40470  0.50000  Biso   1.000  O 
  C188     1.0000 0.15360  0.34640  0.50000  Biso   1.000  C 
  O90      1.0000 0.09529  0.32954  0.50000  Biso   1.000  O 
  C189     1.0000 0.11438  0.20400  0.57525  Biso   1.000  C 
  C190     1.0000 0.17793  0.21507  0.61948  Biso   1.000  C 
  H243     1.0000 0.07771  0.24017  0.58675  Biso   1.000  H 
  H244     1.0000 0.09269  0.15533  0.58173  Biso   1.000  H 
  H245     1.0000 0.19346  0.17768  0.59532  Biso   1.000  H 
  C191     1.0000 0.25007  0.23644  0.63420  Biso   1.000  C 
  H246     1.0000 0.16817  0.26091  0.60100  Biso   1.000  H 
  H247     1.0000 0.25872  0.27441  0.60518  Biso   1.000  H 
  H248     1.0000 0.25214  0.24881  0.68266  Biso   1.000  H 
  C192     1.0000 0.31545  0.19990  0.63459  Biso   1.000  C 
  C193     1.0000 0.37380  0.28427  0.41128  Biso   1.000  C 
  C194     1.0000 0.35802  0.21767  0.37447  Biso   1.000  C 
  H249     1.0000 0.33998  0.31870  0.39687  Biso   1.000  H 
  H250     1.0000 0.41876  0.30772  0.39924  Biso   1.000  H 
  H251     1.0000 0.38203  0.17659  0.39377  Biso   1.000  H 
  C195     1.0000 0.29204  0.19970  0.33872  Biso   1.000  C 
  H252     1.0000 0.38731  0.22896  0.33558  Biso   1.000  H 
  H253     1.0000 0.28583  0.21890  0.29203  Biso   1.000  H 
  H254     1.0000 0.29682  0.14577  0.33338  Biso   1.000  H 
  C196     1.0000 0.22603  0.20145  0.37025  Biso   1.000  C 
  H255     1.0000 0.24632  0.23695  0.40230  Biso   1.000  H 
  C197     1.0000 0.15661  0.23356  0.37133  Biso   1.000  C 
  H256     1.0000 0.21669  0.15370  0.39185  Biso   1.000  H 
  H257     1.0000 0.32953  0.17959  0.68114  Biso   1.000  H 
  C198     1.0000 0.37000  0.24799  0.62376  Biso   1.000  C 
  H258     1.0000 0.31976  0.15924  0.60511  Biso   1.000  H 
  H259     1.0000 0.37547  0.29024  0.59296  Biso   1.000  H 
  H260     1.0000 0.38390  0.26121  0.66895  Biso   1.000  H 
  H261     1.0000 0.40625  0.21754  0.60582  Biso   1.000  H 
  H262     1.0000 0.15744  0.28038  0.39191  Biso   1.000  H 
  H263     1.0000 0.12750  0.20800  0.40398  Biso   1.000  H 
  H264     1.0000 0.12846  0.23263  0.33041  Biso   1.000  H 
  C199     1.0000 0.34640  0.65360  0.00000  Biso   1.000  C 
  O91      1.0000 0.40471  0.67046  0.00000  Biso   1.000  O 
  O92      1.0000 0.32954  0.59529  0.00000  Biso   1.000  O 
  C200     1.0000 0.29500  0.70500  0.00000  Biso   1.000  C 
  C201     1.0000 0.23249  0.68437  0.00000  Biso   1.000  C 
  H265     1.0000 0.22128  0.63046  0.00000  Biso   1.000  H 
  O93      1.0000 0.11957  0.71383  0.00818  Biso   1.000  O 
  C202     1.0000 0.18442  0.73248  0.00000  Biso   1.000  C 
  C203     1.0000 0.20500  0.79499  0.00000  Biso   1.000  C 
  C204     1.0000 0.26751  0.81558  0.00000  Biso   1.000  C 
  C205     1.0000 0.31563  0.76751  0.00000  Biso   1.000  C 
  O94      1.0000 0.37750  0.78046  0.97500  Biso   1.000  O 
  H266     1.0000 0.27872  0.86949  0.00000  Biso   1.000  H 
  O95      1.0000 0.17046  0.90470  0.00000  Biso   1.000  O 
  C206     1.0000 0.15360  0.84639  0.00000  Biso   1.000  C 
  O96      1.0000 0.09529  0.82953  0.00000  Biso   1.000  O 
  C207     1.0000 0.11446  0.71237  0.07564  Biso   1.000  C 
  C208     1.0000 0.17892  0.71886  0.11967  Biso   1.000  C 
  H267     1.0000 0.08073  0.75073  0.08308  Biso   1.000  H 
  H268     1.0000 0.09036  0.66721  0.08669  Biso   1.000  H 
  H269     1.0000 0.19383  0.68166  0.09807  Biso   1.000  H 
  C209     1.0000 0.24969  0.73987  0.13299  Biso   1.000  C 
  H270     1.0000 0.17302  0.76721  0.10253  Biso   1.000  H 
  H271     1.0000 0.26267  0.78194  0.11061  Biso   1.000  H 
  H272     1.0000 0.24283  0.74538  0.18412  Biso   1.000  H 
  C210     1.0000 0.31600  0.70349  0.13362  Biso   1.000  C 
  C211     1.0000 0.36599  0.77249  0.90733  Biso   1.000  C 
  C212     1.0000 0.34255  0.70518  0.87040  Biso   1.000  C 
  H273     1.0000 0.33808  0.80984  0.88841  Biso   1.000  H 
  H274     1.0000 0.41269  0.78078  0.89184  Biso   1.000  H 
  H275     1.0000 0.34003  0.65598  0.89177  Biso   1.000  H 
  C213     1.0000 0.27378  0.70006  0.83333  Biso   1.000  C 
  H276     1.0000 0.38143  0.69796  0.83852  Biso   1.000  H 
  H277     1.0000 0.27548  0.72068  0.78810  Biso   1.000  H 
  H278     1.0000 0.26399  0.64659  0.82555  Biso   1.000  H 
  C214     1.0000 0.21332  0.71943  0.86915  Biso   1.000  C 
  H279     1.0000 0.23669  0.75047  0.89982  Biso   1.000  H 
  C215     1.0000 0.15257  0.75532  0.85325  Biso   1.000  C 
  H280     1.0000 0.19556  0.67996  0.89469  Biso   1.000  H 
  H281     1.0000 0.32352  0.68920  0.18220  Biso   1.000  H 
  C216     1.0000 0.37270  0.74777  0.12542  Biso   1.000  C 
  H282     1.0000 0.32011  0.65925  0.10765  Biso   1.000  H 
  H283     1.0000 0.37560  0.78447  0.08942  Biso   1.000  H 
  H284     1.0000 0.38102  0.76752  0.17115  Biso   1.000  H 
  H285     1.0000 0.40873  0.71383  0.11332  Biso   1.000  H 
  H286     1.0000 0.15125  0.80206  0.87675  Biso   1.000  H 
  H287     1.0000 0.11075  0.73135  0.86999  Biso   1.000  H 
  H288     1.0000 0.14706  0.76040  0.80352  Biso   1.000  H 
  C217     1.0000 0.84640  0.84640  0.00000  Biso   1.000  C 
  O97      1.0000 0.90471  0.82954  0.00000  Biso   1.000  O 
  O98      1.0000 0.82954  0.90471  0.00000  Biso   1.000  O 
  C218     1.0000 0.79500  0.79500  0.00000  Biso   1.000  C 
  C219     1.0000 0.73249  0.81563  0.00000  Biso   1.000  C 
  H289     1.0000 0.72128  0.86954  0.00000  Biso   1.000  H 
  O99      1.0000 0.61853  0.78168  0.00384  Biso   1.000  O 
  C220     1.0000 0.68442  0.76752  0.00000  Biso   1.000  C 
  C221     1.0000 0.70500  0.70501  0.00000  Biso   1.000  C 
  C222     1.0000 0.76751  0.68442  0.00000  Biso   1.000  C 
  C223     1.0000 0.81563  0.73249  0.00000  Biso   1.000  C 
  O100     1.0000 0.88105  0.71511  0.02512  Biso   1.000  O 
  H290     1.0000 0.77872  0.63051  0.00000  Biso   1.000  H 
  O101     1.0000 0.67046  0.59530  0.00000  Biso   1.000  O 
  C224     1.0000 0.65360  0.65361  0.00000  Biso   1.000  C 
  O102     1.0000 0.59529  0.67047  0.00000  Biso   1.000  O 
  C225     1.0000 0.59448  0.80963  0.94873  Biso   1.000  C 
  C226     1.0000 0.62511  0.79135  0.88574  Biso   1.000  C 
  H291     1.0000 0.54475  0.78690  0.95117  Biso   1.000  H 
  H292     1.0000 0.58885  0.86196  0.95613  Biso   1.000  H 
  H293     1.0000 0.60239  0.82089  0.85233  Biso   1.000  H 
  C227     1.0000 0.70199  0.78979  0.86558  Biso   1.000  C 
  H294     1.0000 0.61435  0.74088  0.87793  Biso   1.000  H 
  H295     1.0000 0.71573  0.75198  0.89580  Biso   1.000  H 
  H296     1.0000 0.71559  0.76765  0.82388  Biso   1.000  H 
  C228     1.0000 0.74995  0.84305  0.86839  Biso   1.000  C 
  C229     1.0000 0.91013  0.65253  0.01343  Biso   1.000  C 
  C230     1.0000 0.93824  0.61335  0.07103  Biso   1.000  C 
  H297     1.0000 0.87968  0.61552  0.98842  Biso   1.000  H 
  H298     1.0000 0.95628  0.66598  0.98782  Biso   1.000  H 
  H299     1.0000 0.98022  0.63764  0.08807  Biso   1.000  H 
  C231     1.0000 0.89143  0.59224  0.12213  Biso   1.000  C 
  H300     1.0000 0.95574  0.56701  0.04927  Biso   1.000  H 
  H301     1.0000 0.88334  0.54031  0.11961  Biso   1.000  H 
  H302     1.0000 0.92015  0.59911  0.16460  Biso   1.000  H 
  C232     1.0000 0.83280  0.63603  0.12334  Biso   1.000  C 
  H303     1.0000 0.81258  0.62050  0.08284  Biso   1.000  H 
  C233     1.0000 0.77421  0.63201  0.16734  Biso   1.000  C 
  H304     1.0000 0.84347  0.68763  0.11952  Biso   1.000  H 
  H305     1.0000 0.76743  0.85185  0.81686  Biso   1.000  H 
  C234     1.0000 0.71081  0.89408  0.88893  Biso   1.000  C 
  H306     1.0000 0.79565  0.84109  0.89468  Biso   1.000  H 
  H307     1.0000 0.74594  0.92903  0.90948  Biso   1.000  H 
  H308     1.0000 0.67265  0.89291  0.92328  Biso   1.000  H 
  H309     1.0000 0.68685  0.90505  0.84786  Biso   1.000  H 
  H310     1.0000 0.73083  0.61454  0.14131  Biso   1.000  H 
  H311     1.0000 0.76582  0.68080  0.18284  Biso   1.000  H 
  H312     1.0000 0.77797  0.60591  0.21005  Biso   1.000  H 
  C235     1.0000 0.84640  0.34640  0.50000  Biso   1.000  C 
  O103     1.0000 0.90471  0.32954  0.50000  Biso   1.000  O 
  O104     1.0000 0.82954  0.40471  0.50000  Biso   1.000  O 
  C236     1.0000 0.79500  0.29500  0.50000  Biso   1.000  C 
  C237     1.0000 0.73249  0.31563  0.50000  Biso   1.000  C 
  H313     1.0000 0.72128  0.36954  0.50000  Biso   1.000  H 
  O105     1.0000 0.61816  0.28441  0.50479  Biso   1.000  O 
  C238     1.0000 0.68442  0.26751  0.50000  Biso   1.000  C 
  C239     1.0000 0.70500  0.20500  0.50000  Biso   1.000  C 
  C240     1.0000 0.76751  0.18442  0.50000  Biso   1.000  C 
  C241     1.0000 0.81563  0.23249  0.50000  Biso   1.000  C 
  O106     1.0000 0.87950  0.21420  0.53055  Biso   1.000  O 
  H314     1.0000 0.77872  0.13051  0.50000  Biso   1.000  H 
  O107     1.0000 0.67046  0.09530  0.50000  Biso   1.000  O 
  C242     1.0000 0.65360  0.15360  0.50000  Biso   1.000  C 
  O108     1.0000 0.59529  0.17046  0.50000  Biso   1.000  O 
  C243     1.0000 0.59152  0.29832  0.44676  Biso   1.000  C 
  C244     1.0000 0.62759  0.27796  0.38292  Biso   1.000  C 
  H315     1.0000 0.54974  0.26832  0.45115  Biso   1.000  H 
  H316     1.0000 0.57301  0.34843  0.44706  Biso   1.000  H 
  H317     1.0000 0.60472  0.31341  0.35501  Biso   1.000  H 
  C245     1.0000 0.70147  0.28320  0.36825  Biso   1.000  C 
  H318     1.0000 0.60934  0.22680  0.37439  Biso   1.000  H 
  H319     1.0000 0.72656  0.25184  0.39899  Biso   1.000  H 
  H320     1.0000 0.71500  0.26748  0.32226  Biso   1.000  H 
  C246     1.0000 0.73723  0.34604  0.36654  Biso   1.000  C 
  C247     1.0000 0.90704  0.15010  0.51565  Biso   1.000  C 
  C248     1.0000 0.92748  0.10990  0.57413  Biso   1.000  C 
  H321     1.0000 0.88064  0.11837  0.48199  Biso   1.000  H 
  H322     1.0000 0.95567  0.15575  0.49426  Biso   1.000  H 
  H323     1.0000 0.96573  0.13253  0.60153  Biso   1.000  H 
  C249     1.0000 0.87544  0.08690  0.61861  Biso   1.000  C 
  H324     1.0000 0.95057  0.06695  0.55221  Biso   1.000  H 
  H325     1.0000 0.87419  0.03933  0.60175  Biso   1.000  H 
  H326     1.0000 0.89183  0.08425  0.66868  Biso   1.000  H 
  C250     1.0000 0.80911  0.12484  0.61611  Biso   1.000  C 
  H327     1.0000 0.79028  0.09953  0.57871  Biso   1.000  H 
  C251     1.0000 0.74424  0.13385  0.65229  Biso   1.000  C 
  H328     1.0000 0.81748  0.17424  0.60524  Biso   1.000  H 
  H329     1.0000 0.74919  0.35974  0.31805  Biso   1.000  H 
  C252     1.0000 0.69619  0.39665  0.39288  Biso   1.000  C 
  H330     1.0000 0.78301  0.34542  0.39211  Biso   1.000  H 
  H331     1.0000 0.73209  0.43271  0.40694  Biso   1.000  H 
  H332     1.0000 0.66334  0.38976  0.43182  Biso   1.000  H 
  H333     1.0000 0.66429  0.41191  0.35405  Biso   1.000  H 
  H334     1.0000 0.70310  0.11633  0.62275  Biso   1.000  H 
  H335     1.0000 0.73752  0.18456  0.65940  Biso   1.000  H 
  H336     1.0000 0.74034  0.11255  0.69978  Biso   1.000  H 
  C253     1.0000 0.34640  0.84640  0.50000  Biso   1.000  C 
  O109     1.0000 0.40471  0.82954  0.50000  Biso   1.000  O 
  O110     1.0000 0.32954  0.90471  0.50000  Biso   1.000  O 
  C254     1.0000 0.29500  0.79500  0.50000  Biso   1.000  C 
  C255     1.0000 0.23249  0.81563  0.50000  Biso   1.000  C 
  H337     1.0000 0.22128  0.86954  0.50000  Biso   1.000  H 
  O111     1.0000 0.11700  0.77840  0.48571  Biso   1.000  O 
  C256     1.0000 0.18442  0.76752  0.50000  Biso   1.000  C 
  C257     1.0000 0.20500  0.70501  0.50000  Biso   1.000  C 
  C258     1.0000 0.26751  0.68442  0.50000  Biso   1.000  C 
  C259     1.0000 0.31563  0.73249  0.50000  Biso   1.000  C 
  O112     1.0000 0.37532  0.72175  0.54391  Biso   1.000  O 
  H338     1.0000 0.27872  0.63051  0.50000  Biso   1.000  H 
  O113     1.0000 0.17046  0.59530  0.50000  Biso   1.000  O 
  C260     1.0000 0.15360  0.65361  0.50000  Biso   1.000  C 
  O114     1.0000 0.09529  0.67047  0.50000  Biso   1.000  O 
  C261     1.0000 0.09215  0.83758  0.46993  Biso   1.000  C 
  C262     1.0000 0.11674  0.86323  0.40965  Biso   1.000  C 
  H339     1.0000 0.03938  0.82630  0.46480  Biso   1.000  H 
  H340     1.0000 0.09608  0.87442  0.50784  Biso   1.000  H 
  H341     1.0000 0.14981  0.89634  0.42665  Biso   1.000  H 
  C263     1.0000 0.15813  0.81777  0.37160  Biso   1.000  C 
  H342     1.0000 0.07532  0.88611  0.38348  Biso   1.000  H 
  H343     1.0000 0.13842  0.76778  0.37566  Biso   1.000  H 
  H344     1.0000 0.14633  0.83743  0.32807  Biso   1.000  H 
  C264     1.0000 0.23057  0.81624  0.36468  Biso   1.000  C 
  C265     1.0000 0.43995  0.69186  0.53146  Biso   1.000  C 
  C266     1.0000 0.46411  0.63124  0.57254  Biso   1.000  C 
  H345     1.0000 0.44688  0.66327  0.49119  Biso   1.000  H 
  H346     1.0000 0.47569  0.73141  0.52985  Biso   1.000  H 
  H347     1.0000 0.45375  0.63287  0.62185  Biso   1.000  H 
  C267     1.0000 0.44449  0.55826  0.55731  Biso   1.000  C 
  H348     1.0000 0.51624  0.62768  0.56715  Biso   1.000  H 
  H349     1.0000 0.47370  0.53799  0.51549  Biso   1.000  H 
  H350     1.0000 0.44694  0.52441  0.59780  Biso   1.000  H 
  C268     1.0000 0.37306  0.56412  0.54052  Biso   1.000  C 
  H351     1.0000 0.35487  0.51609  0.52909  Biso   1.000  H 
  C269     1.0000 0.33130  0.59634  0.59224  Biso   1.000  C 
  H352     1.0000 0.37033  0.59253  0.49813  Biso   1.000  H 
  H353     1.0000 0.24597  0.79980  0.31644  Biso   1.000  H 
  C270     1.0000 0.26743  0.87388  0.37589  Biso   1.000  C 
  H354     1.0000 0.24486  0.78129  0.39628  Biso   1.000  H 
  H355     1.0000 0.31764  0.86326  0.38834  Biso   1.000  H 
  H356     1.0000 0.24756  0.90695  0.41124  Biso   1.000  H 
  H357     1.0000 0.26678  0.89475  0.32914  Biso   1.000  H 
  H358     1.0000 0.27952  0.59246  0.58792  Biso   1.000  H 
  H359     1.0000 0.33651  0.64513  0.60135  Biso   1.000  H 
  H360     1.0000 0.34851  0.57090  0.63117  Biso   1.000  H 
  C271     1.0000 0.34640  0.34640  0.00000  Biso   1.000  C 
  O115     1.0000 0.40471  0.32954  0.00000  Biso   1.000  O 
  O116     1.0000 0.32954  0.40471  0.00000  Biso   1.000  O 
  C272     1.0000 0.29500  0.29500  0.00000  Biso   1.000  C 
  C273     1.0000 0.23249  0.31563  0.00000  Biso   1.000  C 
  H361     1.0000 0.22128  0.36954  0.00000  Biso   1.000  H 
  O117     1.0000 0.11853  0.28506  0.99599  Biso   1.000  O 
  C274     1.0000 0.18442  0.26751  0.00000  Biso   1.000  C 
  C275     1.0000 0.20500  0.20500  0.00000  Biso   1.000  C 
  C276     1.0000 0.26751  0.18442  0.00000  Biso   1.000  C 
  C277     1.0000 0.31563  0.23249  0.00000  Biso   1.000  C 
  O118     1.0000 0.37595  0.21936  0.03801  Biso   1.000  O 
  H362     1.0000 0.27872  0.13051  0.00000  Biso   1.000  H 
  O119     1.0000 0.17046  0.09530  0.00000  Biso   1.000  O 
  C278     1.0000 0.15360  0.15360  0.00000  Biso   1.000  C 
  O120     1.0000 0.09529  0.17046  0.00000  Biso   1.000  O 
  C279     1.0000 0.09375  0.29474  0.93639  Biso   1.000  C 
  C280     1.0000 0.13252  0.27378  0.87751  Biso   1.000  C 
  H363     1.0000 0.05133  0.26249  0.94334  Biso   1.000  H 
  H364     1.0000 0.07212  0.34523  0.93518  Biso   1.000  H 
  H365     1.0000 0.11475  0.31066  0.84548  Biso   1.000  H 
  C281     1.0000 0.20712  0.28165  0.86706  Biso   1.000  C 
  H366     1.0000 0.11403  0.22699  0.86590  Biso   1.000  H 
  H367     1.0000 0.22958  0.25482  0.90056  Biso   1.000  H 
  H368     1.0000 0.22795  0.26346  0.82429  Biso   1.000  H 
  C282     1.0000 0.23924  0.34493  0.87240  Biso   1.000  C 
  C283     1.0000 0.41774  0.16371  0.02898  Biso   1.000  C 
  C284     1.0000 0.42100  0.12159  0.08749  Biso   1.000  C 
  H369     1.0000 0.39965  0.12802  0.99342  Biso   1.000  H 
  H370     1.0000 0.46663  0.17789  0.01483  Biso   1.000  H 
  H371     1.0000 0.44176  0.14609  0.12527  Biso   1.000  H 
  C285     1.0000 0.35755  0.09440  0.10604  Biso   1.000  C 
  H372     1.0000 0.45441  0.07973  0.08017  Biso   1.000  H 
  H373     1.0000 0.34909  0.06648  0.06101  Biso   1.000  H 
  H374     1.0000 0.36899  0.06155  0.14438  Biso   1.000  H 
  C286     1.0000 0.29358  0.13204  0.11728  Biso   1.000  C 
  H375     1.0000 0.25991  0.10475  0.08536  Biso   1.000  H 
  C287     1.0000 0.24407  0.14034  0.17045  Biso   1.000  C 
  H376     1.0000 0.30249  0.18117  0.10477  Biso   1.000  H 
  H377     1.0000 0.24857  0.35928  0.82476  Biso   1.000  H 
  C288     1.0000 0.19560  0.39565  0.89553  Biso   1.000  C 
  H378     1.0000 0.28813  0.34222  0.89203  Biso   1.000  H 
  H379     1.0000 0.23173  0.42853  0.91402  Biso   1.000  H 
  H380     1.0000 0.15848  0.38965  0.93171  Biso   1.000  H 
  H381     1.0000 0.17117  0.41341  0.85312  Biso   1.000  H 
  H382     1.0000 0.19676  0.13055  0.14862  Biso   1.000  H 
  H383     1.0000 0.24597  0.18865  0.18959  Biso   1.000  H 
  H384     1.0000 0.24348  0.10959  0.21049  Biso   1.000  H 
  C289     1.0000 0.00000  0.84640  0.15360  Biso   1.000  C 
  O121     1.0000 0.00000  0.90471  0.17046  Biso   1.000  O 
  O122     1.0000 0.00000  0.82954  0.09529  Biso   1.000  O 
  C290     1.0000 0.00000  0.79500  0.20500  Biso   1.000  C 
  C291     1.0000 0.00000  0.73249  0.18437  Biso   1.000  C 
  H385     1.0000 0.00000  0.72128  0.13046  Biso   1.000  H 
  O123     1.0000 0.01199  0.62042  0.21385  Biso   1.000  O 
  C292     1.0000 0.00000  0.68442  0.23249  Biso   1.000  C 
  C293     1.0000 0.00000  0.70500  0.29500  Biso   1.000  C 
  C294     1.0000 0.00000  0.76751  0.31558  Biso   1.000  C 
  C295     1.0000 0.00000  0.81563  0.26751  Biso   1.000  C 
  O124     1.0000 0.98898  0.88133  0.28365  Biso   1.000  O 
  H386     1.0000 0.00000  0.77872  0.36949  Biso   1.000  H 
  O125     1.0000 0.00000  0.67046  0.40470  Biso   1.000  O 
  C296     1.0000 0.00000  0.65360  0.34640  Biso   1.000  C 
  O126     1.0000 0.00000  0.59529  0.32954  Biso   1.000  O 
  C297     1.0000 0.07773  0.61402  0.21257  Biso   1.000  C 
  C298     1.0000 0.12078  0.67733  0.23030  Biso   1.000  C 
  H387     1.0000 0.08788  0.58174  0.25155  Biso   1.000  H 
  H388     1.0000 0.08838  0.58854  0.16552  Biso   1.000  H 
  H389     1.0000 0.09954  0.69800  0.19216  Biso   1.000  H 
  C299     1.0000 0.13338  0.75071  0.24709  Biso   1.000  C 
  H390     1.0000 0.10269  0.67291  0.27759  Biso   1.000  H 
  H391     1.0000 0.10318  0.76508  0.28368  Biso   1.000  H 
  H392     1.0000 0.17856  0.75311  0.26627  Biso   1.000  H 
  C300     1.0000 0.13731  0.80914  0.20346  Biso   1.000  C 
  C301     1.0000 0.92465  0.88376  0.29523  Biso   1.000  C 
  C302     1.0000 0.87755  0.85740  0.24087  Biso   1.000  C 
  H393     1.0000 0.91664  0.85824  0.33551  Biso   1.000  H 
  H394     1.0000 0.92020  0.93235  0.31160  Biso   1.000  H 
  H395     1.0000 0.89017  0.88190  0.19595  Biso   1.000  H 
  C303     1.0000 0.85588  0.78403  0.22293  Biso   1.000  C 
  H396     1.0000 0.83724  0.87903  0.25857  Biso   1.000  H 
  H397     1.0000 0.80520  0.78067  0.22692  Biso   1.000  H 
  H398     1.0000 0.86843  0.78241  0.17025  Biso   1.000  H 
  C304     1.0000 0.87123  0.71426  0.24593  Biso   1.000  C 
  H399     1.0000 0.89974  0.73878  0.27479  Biso   1.000  H 
  C305     1.0000 0.86514  0.65082  0.28655  Biso   1.000  C 
  H400     1.0000 0.89381  0.69470  0.20466  Biso   1.000  H 
  H401     1.0000 0.18385  0.82024  0.18550  Biso   1.000  H 
  C306     1.0000 0.12697  0.87650  0.22518  Biso   1.000  C 
  H402     1.0000 0.10668  0.80419  0.16162  Biso   1.000  H 
  H403     1.0000 0.08868  0.88875  0.25360  Biso   1.000  H 
  H404     1.0000 0.17016  0.89126  0.25186  Biso   1.000  H 
  H405     1.0000 0.12019  0.89959  0.17911  Biso   1.000  H 
  H406     1.0000 0.89355  0.61377  0.26188  Biso   1.000  H 
  H407     1.0000 0.81841  0.62971  0.29057  Biso   1.000  H 
  H408     1.0000 0.88480  0.65341  0.33546  Biso   1.000  H 
  C307     1.0000 0.00000  0.34640  0.65360  Biso   1.000  C 
  O127     1.0000 0.00000  0.40471  0.67046  Biso   1.000  O 
  O128     1.0000 0.00000  0.32954  0.59529  Biso   1.000  O 
  C308     1.0000 0.00000  0.29500  0.70500  Biso   1.000  C 
  C309     1.0000 0.00000  0.23249  0.68437  Biso   1.000  C 
  H409     1.0000 0.00000  0.22128  0.63046  Biso   1.000  H 
  O129     1.0000 0.00984  0.11917  0.71433  Biso   1.000  O 
  C310     1.0000 0.00000  0.18442  0.73248  Biso   1.000  C 
  C311     1.0000 0.00000  0.20500  0.79499  Biso   1.000  C 
  C312     1.0000 0.00000  0.26751  0.81558  Biso   1.000  C 
  C313     1.0000 0.00000  0.31563  0.76751  Biso   1.000  C 
  O130     1.0000 0.00204  0.37989  0.78549  Biso   1.000  O 
  H410     1.0000 0.00000  0.27872  0.86949  Biso   1.000  H 
  O131     1.0000 0.00000  0.17046  0.90470  Biso   1.000  O 
  C314     1.0000 0.00000  0.15360  0.84639  Biso   1.000  C 
  O132     1.0000 0.00000  0.09529  0.82953  Biso   1.000  O 
  C315     1.0000 0.07687  0.11318  0.71263  Biso   1.000  C 
  C316     1.0000 0.12002  0.17791  0.72161  Biso   1.000  C 
  H411     1.0000 0.08759  0.07968  0.75201  Biso   1.000  H 
  H412     1.0000 0.08389  0.08419  0.66967  Biso   1.000  H 
  H413     1.0000 0.09527  0.18729  0.68112  Biso   1.000  H 
  C317     1.0000 0.13262  0.24980  0.73564  Biso   1.000  C 
  H414     1.0000 0.10275  0.17152  0.77074  Biso   1.000  H 
  H415     1.0000 0.10132  0.26492  0.76870  Biso   1.000  H 
  H416     1.0000 0.17870  0.24954  0.75159  Biso   1.000  H 
  C318     1.0000 0.13340  0.31034  0.69633  Biso   1.000  C 
  C319     1.0000 0.93999  0.39719  0.79896  Biso   1.000  C 
  C320     1.0000 0.88978  0.37397  0.74638  Biso   1.000  C 
  H417     1.0000 0.93150  0.39131  0.85339  Biso   1.000  H 
  H418     1.0000 0.94779  0.44880  0.79101  Biso   1.000  H 
  H419     1.0000 0.90106  0.38962  0.69982  Biso   1.000  H 
  C321     1.0000 0.86141  0.30761  0.75537  Biso   1.000  C 
  H420     1.0000 0.84774  0.39829  0.76013  Biso   1.000  H 
  H421     1.0000 0.89246  0.28041  0.78125  Biso   1.000  H 
  H422     1.0000 0.82102  0.30979  0.78908  Biso   1.000  H 
  C322     1.0000 0.84836  0.26304  0.69878  Biso   1.000  C 
  H423     1.0000 0.87296  0.27882  0.65563  Biso   1.000  H 
  C323     1.0000 0.86608  0.19401  0.71405  Biso   1.000  C 
  H424     1.0000 0.79883  0.26302  0.68785  Biso   1.000  H 
  H425     1.0000 0.17916  0.31390  0.67638  Biso   1.000  H 
  C324     1.0000 0.13232  0.37292  0.73386  Biso   1.000  C 
  H426     1.0000 0.10240  0.30793  0.65766  Biso   1.000  H 
  H427     1.0000 0.09325  0.40127  0.75247  Biso   1.000  H 
  H428     1.0000 0.16520  0.36366  0.77199  Biso   1.000  H 
  H429     1.0000 0.15379  0.40084  0.69758  Biso   1.000  H 
  H430     1.0000 0.88973  0.17859  0.75384  Biso   1.000  H 
  H431     1.0000 0.89511  0.18236  0.67468  Biso   1.000  H 
  H432     1.0000 0.82534  0.16599  0.71802  Biso   1.000  H 
  C325     1.0000 0.50000  0.84640  0.65360  Biso   1.000  C 
  O133     1.0000 0.50000  0.90471  0.67046  Biso   1.000  O 
  O134     1.0000 0.50000  0.82954  0.59529  Biso   1.000  O 
  C326     1.0000 0.50000  0.79500  0.70500  Biso   1.000  C 
  C327     1.0000 0.50000  0.73249  0.68437  Biso   1.000  C 
  H433     1.0000 0.50000  0.72128  0.63046  Biso   1.000  H 
  O135     1.0000 0.50818  0.61588  0.71270  Biso   1.000  O 
  C328     1.0000 0.50000  0.68442  0.73248  Biso   1.000  C 
  C329     1.0000 0.50000  0.70500  0.79499  Biso   1.000  C 
  C330     1.0000 0.50000  0.76751  0.81558  Biso   1.000  C 
  C331     1.0000 0.50000  0.81563  0.76751  Biso   1.000  C 
  O136     1.0000 0.47221  0.87734  0.78358  Biso   1.000  O 
  H434     1.0000 0.50000  0.77872  0.86949  Biso   1.000  H 
  O137     1.0000 0.50000  0.67046  0.90470  Biso   1.000  O 
  C332     1.0000 0.50000  0.65360  0.84639  Biso   1.000  C 
  O138     1.0000 0.50000  0.59529  0.82953  Biso   1.000  O 
  C333     1.0000 0.57504  0.61049  0.70697  Biso   1.000  C 
  C334     1.0000 0.61806  0.67509  0.72140  Biso   1.000  C 
  H435     1.0000 0.58463  0.57443  0.74088  Biso   1.000  H 
  H436     1.0000 0.58041  0.59066  0.65555  Biso   1.000  H 
  H437     1.0000 0.59569  0.69448  0.68698  Biso   1.000  H 
  C335     1.0000 0.62801  0.74893  0.73756  Biso   1.000  C 
  H438     1.0000 0.59937  0.66751  0.77066  Biso   1.000  H 
  H439     1.0000 0.60364  0.75866  0.77735  Biso   1.000  H 
  H440     1.0000 0.67718  0.74406  0.74350  Biso   1.000  H 
  C336     1.0000 0.63445  0.81325  0.69966  Biso   1.000  C 
  C337     1.0000 0.40597  0.87383  0.76048  Biso   1.000  C 
  C338     1.0000 0.36960  0.80839  0.76230  Biso   1.000  C 
  H441     1.0000 0.38281  0.90367  0.79471  Biso   1.000  H 
  H442     1.0000 0.39916  0.89523  0.71114  Biso   1.000  H 
  H443     1.0000 0.32642  0.81271  0.78820  Biso   1.000  H 
  C339     1.0000 0.35283  0.76638  0.70399  Biso   1.000  C 
  H444     1.0000 0.39464  0.78079  0.79271  Biso   1.000  H 
  H445     1.0000 0.30131  0.76322  0.69727  Biso   1.000  H 
  H446     1.0000 0.37441  0.78863  0.66044  Biso   1.000  H 
  C340     1.0000 0.36770  0.69481  0.70892  Biso   1.000  C 
  H447     1.0000 0.39704  0.69664  0.74524  Biso   1.000  H 
  C341     1.0000 0.34091  0.63214  0.73132  Biso   1.000  C 
  H448     1.0000 0.39364  0.69126  0.66535  Biso   1.000  H 
  H449     1.0000 0.68388  0.82409  0.68300  Biso   1.000  H 
  C342     1.0000 0.62707  0.87521  0.73715  Biso   1.000  C 
  H450     1.0000 0.60838  0.81218  0.65752  Biso   1.000  H 
  H451     1.0000 0.59408  0.87957  0.77719  Biso   1.000  H 
  H452     1.0000 0.67450  0.88815  0.75331  Biso   1.000  H 
  H453     1.0000 0.61127  0.90442  0.70003  Biso   1.000  H 
  H454     1.0000 0.34818  0.62155  0.78356  Biso   1.000  H 
  H455     1.0000 0.37455  0.59938  0.71247  Biso   1.000  H 
  H456     1.0000 0.29298  0.62531  0.71393  Biso   1.000  H 
  C343     1.0000 0.50000  0.34640  0.15360  Biso   1.000  C 
  O139     1.0000 0.50000  0.40471  0.17046  Biso   1.000  O 
  O140     1.0000 0.50000  0.32954  0.09529  Biso   1.000  O 
  C344     1.0000 0.50000  0.29500  0.20500  Biso   1.000  C 
  C345     1.0000 0.50000  0.23249  0.18437  Biso   1.000  C 
  H457     1.0000 0.50000  0.22128  0.13046  Biso   1.000  H 
  O141     1.0000 0.51008  0.11816  0.21475  Biso   1.000  O 
  C346     1.0000 0.50000  0.18442  0.23249  Biso   1.000  C 
  C347     1.0000 0.50000  0.20500  0.29500  Biso   1.000  C 
  C348     1.0000 0.50000  0.26751  0.31558  Biso   1.000  C 
  C349     1.0000 0.50000  0.31563  0.26751  Biso   1.000  C 
  O142     1.0000 0.46433  0.37294  0.28161  Biso   1.000  O 
  H458     1.0000 0.50000  0.27872  0.36949  Biso   1.000  H 
  O143     1.0000 0.50000  0.17046  0.40470  Biso   1.000  O 
  C350     1.0000 0.50000  0.15360  0.34640  Biso   1.000  C 
  O144     1.0000 0.50000  0.09529  0.32954  Biso   1.000  O 
  C351     1.0000 0.57630  0.11002  0.20788  Biso   1.000  C 
  C352     1.0000 0.61705  0.17329  0.22190  Biso   1.000  C 
  H459     1.0000 0.58612  0.07709  0.24721  Biso   1.000  H 
  H460     1.0000 0.58740  0.08613  0.16179  Biso   1.000  H 
  H461     1.0000 0.59457  0.18638  0.18084  Biso   1.000  H 
  C353     1.0000 0.63001  0.24897  0.23567  Biso   1.000  C 
  H462     1.0000 0.60086  0.16937  0.27061  Biso   1.000  H 
  H463     1.0000 0.60508  0.26240  0.27316  Biso   1.000  H 
  H464     1.0000 0.67837  0.24346  0.24629  Biso   1.000  H 
  C354     1.0000 0.63467  0.31613  0.20199  Biso   1.000  C 
  C355     1.0000 0.39578  0.35874  0.27114  Biso   1.000  C 
  C356     1.0000 0.36502  0.34512  0.20227  Biso   1.000  C 
  H465     1.0000 0.37967  0.32272  0.30373  Biso   1.000  H 
  H466     1.0000 0.37234  0.40207  0.28402  Biso   1.000  H 
  H467     1.0000 0.39201  0.35427  0.15935  Biso   1.000  H 
  C357     1.0000 0.32989  0.28118  0.19273  Biso   1.000  C 
  H468     1.0000 0.32440  0.37892  0.19954  Biso   1.000  H 
  H469     1.0000 0.28823  0.28091  0.22198  Biso   1.000  H 
  H470     1.0000 0.31402  0.27883  0.14210  Biso   1.000  H 
  C358     1.0000 0.37052  0.22121  0.21141  Biso   1.000  C 
  H471     1.0000 0.40195  0.24267  0.24463  Biso   1.000  H 
  C359     1.0000 0.37137  0.14949  0.23938  Biso   1.000  C 
  H472     1.0000 0.39240  0.21649  0.16652  Biso   1.000  H 
  H473     1.0000 0.68470  0.32677  0.19086  Biso   1.000  H 
  C360     1.0000 0.61846  0.37371  0.24440  Biso   1.000  C 
  H474     1.0000 0.60910  0.32120  0.15991  Biso   1.000  H 
  H475     1.0000 0.58825  0.38106  0.28629  Biso   1.000  H 
  H476     1.0000 0.66459  0.38759  0.26086  Biso   1.000  H 
  H477     1.0000 0.60058  0.40597  0.20975  Biso   1.000  H 
  H478     1.0000 0.39318  0.14200  0.28645  Biso   1.000  H 
  H479     1.0000 0.40033  0.12061  0.20961  Biso   1.000  H 
  H480     1.0000 0.32730  0.12678  0.24337  Biso   1.000  H 
  C361     1.0000 0.00000  0.84640  0.84640  Biso   1.000  C 
  O145     1.0000 0.00000  0.90471  0.82954  Biso   1.000  O 
  O146     1.0000 0.00000  0.82954  0.90471  Biso   1.000  O 
  C362     1.0000 0.00000  0.79500  0.79500  Biso   1.000  C 
  C363     1.0000 0.00000  0.73249  0.81563  Biso   1.000  C 
  H481     1.0000 0.00000  0.72128  0.86954  Biso   1.000  H 
  O147     1.0000 0.00095  0.61878  0.78576  Biso   1.000  O 
  C364     1.0000 0.00000  0.68442  0.76752  Biso   1.000  C 
  C365     1.0000 0.00000  0.70500  0.70501  Biso   1.000  C 
  C366     1.0000 0.00000  0.76751  0.68442  Biso   1.000  C 
  C367     1.0000 0.00000  0.81563  0.73249  Biso   1.000  C 
  O148     1.0000 0.03465  0.87579  0.71952  Biso   1.000  O 
  H482     1.0000 0.00000  0.77872  0.63051  Biso   1.000  H 
  O149     1.0000 0.00000  0.67046  0.59530  Biso   1.000  O 
  C368     1.0000 0.00000  0.65360  0.65361  Biso   1.000  C 
  O150     1.0000 0.00000  0.59529  0.67047  Biso   1.000  O 
  C369     1.0000 0.94326  0.59165  0.79551  Biso   1.000  C 
  C370     1.0000 0.88452  0.63252  0.78046  Biso   1.000  C 
  H483     1.0000 0.94700  0.55197  0.76314  Biso   1.000  H 
  H484     1.0000 0.94356  0.57298  0.84624  Biso   1.000  H 
  H485     1.0000 0.85257  0.60934  0.81595  Biso   1.000  H 
  C371     1.0000 0.86899  0.70524  0.78585  Biso   1.000  C 
  H486     1.0000 0.87095  0.61904  0.72877  Biso   1.000  H 
  H487     1.0000 0.90051  0.72661  0.75794  Biso   1.000  H 
  H488     1.0000 0.82536  0.72607  0.76496  Biso   1.000  H 
  C372     1.0000 0.86971  0.73987  0.84557  Biso   1.000  C 
  C373     1.0000 0.04549  0.89259  0.65405  Biso   1.000  C 
  C374     1.0000 0.11294  0.88065  0.64035  Biso   1.000  C 
  H489     1.0000 0.01464  0.87445  0.61215  Biso   1.000  H 
  H490     1.0000 0.03947  0.94795  0.65602  Biso   1.000  H 
  H491     1.0000 0.13361  0.89027  0.68519  Biso   1.000  H 
  C375     1.0000 0.12990  0.81235  0.61878  Biso   1.000  C 
  H492     1.0000 0.12997  0.91388  0.60315  Biso   1.000  H 
  H493     1.0000 0.09164  0.79903  0.58692  Biso   1.000  H 
  H494     1.0000 0.17145  0.82025  0.59380  Biso   1.000  H 
  C376     1.0000 0.14141  0.75303  0.66090  Biso   1.000  C 
  H495     1.0000 0.10343  0.71890  0.64718  Biso   1.000  H 
  C377     1.0000 0.20043  0.70529  0.65470  Biso   1.000  C 
  H496     1.0000 0.13240  0.77059  0.70966  Biso   1.000  H 
  H497     1.0000 0.82190  0.74679  0.86091  Biso   1.000  H 
  C378     1.0000 0.89339  0.69876  0.89594  Biso   1.000  C 
  H498     1.0000 0.89435  0.78557  0.84568  Biso   1.000  H 
  H499     1.0000 0.90971  0.73707  0.92713  Biso   1.000  H 
  H500     1.0000 0.93080  0.66541  0.88850  Biso   1.000  H 
  H501     1.0000 0.85371  0.66786  0.91037  Biso   1.000  H 
  H502     1.0000 0.18540  0.65495  0.63994  Biso   1.000  H 
  H503     1.0000 0.22122  0.70319  0.70291  Biso   1.000  H 
  H504     1.0000 0.23975  0.72017  0.62082  Biso   1.000  H 
  C379     1.0000 0.00000  0.34640  0.34640  Biso   1.000  C 
  O151     1.0000 0.00000  0.40471  0.32954  Biso   1.000  O 
  O152     1.0000 0.00000  0.32954  0.40471  Biso   1.000  O 
  C380     1.0000 0.00000  0.29500  0.29500  Biso   1.000  C 
  C381     1.0000 0.00000  0.23249  0.31563  Biso   1.000  C 
  H505     1.0000 0.00000  0.22128  0.36954  Biso   1.000  H 
  O153     1.0000 0.99442  0.11850  0.28526  Biso   1.000  O 
  C382     1.0000 0.00000  0.18442  0.26751  Biso   1.000  C 
  C383     1.0000 0.00000  0.20500  0.20500  Biso   1.000  C 
  C384     1.0000 0.00000  0.26751  0.18442  Biso   1.000  C 
  C385     1.0000 0.00000  0.31563  0.23249  Biso   1.000  C 
  O154     1.0000 0.03896  0.37565  0.22084  Biso   1.000  O 
  H506     1.0000 0.00000  0.27872  0.13051  Biso   1.000  H 
  O155     1.0000 0.00000  0.17046  0.09530  Biso   1.000  O 
  C386     1.0000 0.00000  0.15360  0.15360  Biso   1.000  C 
  O156     1.0000 0.00000  0.09529  0.17046  Biso   1.000  O 
  C387     1.0000 0.93424  0.09826  0.29534  Biso   1.000  C 
  C388     1.0000 0.87548  0.14090  0.27570  Biso   1.000  C 
  H507     1.0000 0.93576  0.05893  0.26181  Biso   1.000  H 
  H508     1.0000 0.92887  0.07541  0.34274  Biso   1.000  H 
  H509     1.0000 0.84376  0.12182  0.30656  Biso   1.000  H 
  C389     1.0000 0.86771  0.21677  0.27984  Biso   1.000  C 
  H510     1.0000 0.86449  0.12440  0.22655  Biso   1.000  H 
  H511     1.0000 0.90039  0.24031  0.25057  Biso   1.000  H 
  H512     1.0000 0.82377  0.23567  0.26086  Biso   1.000  H 
  C390     1.0000 0.86720  0.24876  0.34435  Biso   1.000  C 
  C391     1.0000 0.04079  0.40436  0.15665  Biso   1.000  C 
  C392     1.0000 0.10937  0.41487  0.13359  Biso   1.000  C 
  H513     1.0000 0.01305  0.37954  0.11851  Biso   1.000  H 
  H514     1.0000 0.02314  0.45480  0.15997  Biso   1.000  H 
  H515     1.0000 0.14055  0.41472  0.17558  Biso   1.000  H 
  C393     1.0000 0.14474  0.36427  0.09472  Biso   1.000  C 
  H516     1.0000 0.11350  0.46075  0.11029  Biso   1.000  H 
  H517     1.0000 0.13425  0.37811  0.04546  Biso   1.000  H 
  H518     1.0000 0.19752  0.36698  0.10426  Biso   1.000  H 
  C394     1.0000 0.11684  0.29694  0.11281  Biso   1.000  C 
  H519     1.0000 0.07568  0.28294  0.08421  Biso   1.000  H 
  C395     1.0000 0.16090  0.24229  0.12460  Biso   1.000  C 
  H520     1.0000 0.09979  0.30710  0.15789  Biso   1.000  H 
  H521     1.0000 0.81811  0.25597  0.35648  Biso   1.000  H 
  C396     1.0000 0.89058  0.20727  0.39320  Biso   1.000  C 
  H522     1.0000 0.88881  0.29716  0.34480  Biso   1.000  H 
  H523     1.0000 0.91284  0.23772  0.43087  Biso   1.000  H 
  H524     1.0000 0.92434  0.17050  0.38343  Biso   1.000  H 
  H525     1.0000 0.85087  0.17856  0.41105  Biso   1.000  H 
  H526     1.0000 0.14261  0.20210  0.10054  Biso   1.000  H 
  H527     1.0000 0.15618  0.22901  0.17239  Biso   1.000  H 
  H528     1.0000 0.21230  0.25227  0.11321  Biso   1.000  H 
  C397     1.0000 0.50000  0.84640  0.34640  Biso   1.000  C 
  O157     1.0000 0.50000  0.90471  0.32954  Biso   1.000  O 
  O158     1.0000 0.50000  0.82954  0.40471  Biso   1.000  O 
  C398     1.0000 0.50000  0.79500  0.29500  Biso   1.000  C 
  C399     1.0000 0.50000  0.73249  0.31563  Biso   1.000  C 
  H529     1.0000 0.50000  0.72128  0.36954  Biso   1.000  H 
  O159     1.0000 0.50652  0.61880  0.28171  Biso   1.000  O 
  C400     1.0000 0.50000  0.68442  0.26751  Biso   1.000  C 
  C401     1.0000 0.50000  0.70500  0.20500  Biso   1.000  C 
  C402     1.0000 0.50000  0.76751  0.18442  Biso   1.000  C 
  C403     1.0000 0.50000  0.81563  0.23249  Biso   1.000  C 
  O160     1.0000 0.53831  0.87546  0.21654  Biso   1.000  O 
  H530     1.0000 0.50000  0.77872  0.13051  Biso   1.000  H 
  O161     1.0000 0.50000  0.67046  0.09530  Biso   1.000  O 
  C404     1.0000 0.50000  0.65360  0.15360  Biso   1.000  C 
  O162     1.0000 0.50000  0.59529  0.17046  Biso   1.000  O 
  C405     1.0000 0.45229  0.58595  0.29570  Biso   1.000  C 
  C406     1.0000 0.39023  0.62189  0.28201  Biso   1.000  C 
  H531     1.0000 0.45529  0.54313  0.26544  Biso   1.000  H 
  H532     1.0000 0.45522  0.57025  0.34579  Biso   1.000  H 
  H533     1.0000 0.36320  0.59157  0.31409  Biso   1.000  H 
  C407     1.0000 0.37042  0.69589  0.29419  Biso   1.000  C 
  H534     1.0000 0.37996  0.61236  0.23174  Biso   1.000  H 
  H535     1.0000 0.39585  0.72450  0.26034  Biso   1.000  H 
  H536     1.0000 0.32198  0.70454  0.28373  Biso   1.000  H 
  C408     1.0000 0.37252  0.73141  0.35483  Biso   1.000  C 
  C409     1.0000 0.52896  0.91543  0.16027  Biso   1.000  C 
  C410     1.0000 0.58570  0.91617  0.11815  Biso   1.000  C 
  H537     1.0000 0.49328  0.89858  0.12415  Biso   1.000  H 
  H538     1.0000 0.52078  0.96600  0.17434  Biso   1.000  H 
  H539     1.0000 0.62600  0.94097  0.13977  Biso   1.000  H 
  C411     1.0000 0.60742  0.85013  0.09817  Biso   1.000  C 
  H540     1.0000 0.57306  0.94717  0.07482  Biso   1.000  H 
  H541     1.0000 0.56449  0.83993  0.07000  Biso   1.000  H 
  H542     1.0000 0.64838  0.86188  0.06974  Biso   1.000  H 
  C412     1.0000 0.62011  0.79132  0.13948  Biso   1.000  C 
  H543     1.0000 0.58995  0.75282  0.11861  Biso   1.000  H 
  C413     1.0000 0.68103  0.75306  0.13734  Biso   1.000  C 
  H544     1.0000 0.61172  0.79973  0.19087  Biso   1.000  H 
  H545     1.0000 0.32624  0.74117  0.37162  Biso   1.000  H 
  C414     1.0000 0.40004  0.69332  0.40231  Biso   1.000  C 
  H546     1.0000 0.39417  0.78109  0.34749  Biso   1.000  H 
  H547     1.0000 0.42108  0.73482  0.42994  Biso   1.000  H 
  H548     1.0000 0.43500  0.65572  0.39134  Biso   1.000  H 
  H549     1.0000 0.36247  0.66783  0.42595  Biso   1.000  H 
  H550     1.0000 0.67261  0.70208  0.12742  Biso   1.000  H 
  H551     1.0000 0.70438  0.75683  0.18568  Biso   1.000  H 
  H552     1.0000 0.71555  0.76693  0.10426  Biso   1.000  H 
  C415     1.0000 0.50000  0.34640  0.84640  Biso   1.000  C 
  O163     1.0000 0.50000  0.40471  0.82954  Biso   1.000  O 
  O164     1.0000 0.50000  0.32954  0.90471  Biso   1.000  O 
  C416     1.0000 0.50000  0.29500  0.79500  Biso   1.000  C 
  C417     1.0000 0.50000  0.23249  0.81563  Biso   1.000  C 
  H553     1.0000 0.50000  0.22128  0.86954  Biso   1.000  H 
  O165     1.0000 0.50790  0.11769  0.78078  Biso   1.000  O 
  C418     1.0000 0.50000  0.18442  0.76752  Biso   1.000  C 
  C419     1.0000 0.50000  0.20500  0.70501  Biso   1.000  C 
  C420     1.0000 0.50000  0.26751  0.68442  Biso   1.000  C 
  C421     1.0000 0.50000  0.31563  0.73249  Biso   1.000  C 
  O166     1.0000 0.53315  0.37985  0.71729  Biso   1.000  O 
  H554     1.0000 0.50000  0.27872  0.63051  Biso   1.000  H 
  O167     1.0000 0.50000  0.17046  0.59530  Biso   1.000  O 
  C422     1.0000 0.50000  0.15360  0.65361  Biso   1.000  C 
  O168     1.0000 0.50000  0.09529  0.67047  Biso   1.000  O 
  C423     1.0000 0.45383  0.09125  0.80605  Biso   1.000  C 
  C424     1.0000 0.39140  0.12559  0.79112  Biso   1.000  C 
  H555     1.0000 0.45530  0.04551  0.77943  Biso   1.000  H 
  H556     1.0000 0.45924  0.07835  0.85816  Biso   1.000  H 
  H557     1.0000 0.36229  0.09693  0.82381  Biso   1.000  H 
  C425     1.0000 0.37285  0.19904  0.79504  Biso   1.000  C 
  H558     1.0000 0.38229  0.11136  0.74041  Biso   1.000  H 
  H559     1.0000 0.39424  0.22349  0.75769  Biso   1.000  H 
  H560     1.0000 0.32451  0.19934  0.78457  Biso   1.000  H 
  C426     1.0000 0.37164  0.24123  0.85367  Biso   1.000  C 
  C427     1.0000 0.51330  0.40910  0.65750  Biso   1.000  C 
  C428     1.0000 0.56791  0.43304  0.61528  Biso   1.000  C 
  H561     1.0000 0.48898  0.37623  0.62328  Biso   1.000  H 
  H562     1.0000 0.48415  0.45324  0.66493  Biso   1.000  H 
  H563     1.0000 0.58853  0.47314  0.63971  Biso   1.000  H 
  C429     1.0000 0.62271  0.38672  0.59752  Biso   1.000  C 
  H564     1.0000 0.54597  0.45237  0.56989  Biso   1.000  H 
  H565     1.0000 0.62024  0.38268  0.54540  Biso   1.000  H 
  H566     1.0000 0.66669  0.40998  0.60765  Biso   1.000  H 
  C430     1.0000 0.61431  0.32101  0.62294  Biso   1.000  C 
  H567     1.0000 0.57381  0.30680  0.59476  Biso   1.000  H 
  C431     1.0000 0.65879  0.26455  0.63096  Biso   1.000  C 
  H568     1.0000 0.60603  0.32629  0.67318  Biso   1.000  H 
  H569     1.0000 0.32525  0.25281  0.87055  Biso   1.000  H 
  C432     1.0000 0.39906  0.20030  0.90389  Biso   1.000  C 
  H570     1.0000 0.39553  0.28693  0.84874  Biso   1.000  H 
  H571     1.0000 0.41333  0.23682  0.93759  Biso   1.000  H 
  H572     1.0000 0.43688  0.16580  0.89754  Biso   1.000  H 
  H573     1.0000 0.35921  0.16989  0.91844  Biso   1.000  H 
  H574     1.0000 0.62966  0.22287  0.61706  Biso   1.000  H 
  H575     1.0000 0.67276  0.25929  0.68091  Biso   1.000  H 
  H576     1.0000 0.70634  0.25944  0.60554  Biso   1.000  H 
