data_image0
_cell_length_a       26.896
_cell_length_b       26.896
_cell_length_c       26.896
_cell_angle_alpha    90
_cell_angle_beta     90
_cell_angle_gamma    90

_symmetry_space_group_name_H-M    "P 1"
_symmetry_int_tables_number       1

loop_
  _symmetry_equiv_pos_as_xyz
  'x, y, z'

loop_
  _atom_site_label
  _atom_site_occupancy
  _atom_site_fract_x
  _atom_site_fract_y
  _atom_site_fract_z
  _atom_site_thermal_displace_type
  _atom_site_B_iso_or_equiv
  _atom_site_type_symbol
  Zr1      1.0000 0.09204  0.00000  0.00000  Biso   1.000  Zr
  Zr2      1.0000 0.90796  0.00000  0.00000  Biso   1.000  Zr
  Zr3      1.0000 0.00000  0.09204  0.00000  Biso   1.000  Zr
  Zr4      1.0000 0.00000  0.90796  0.00000  Biso   1.000  Zr
  Zr5      1.0000 0.00000  0.00000  0.09204  Biso   1.000  Zr
  Zr6      1.0000 0.00000  0.00000  0.90796  Biso   1.000  Zr
  Zr7      1.0000 0.09204  0.50000  0.50000  Biso   1.000  Zr
  Zr8      1.0000 0.90796  0.50000  0.50000  Biso   1.000  Zr
  Zr9      1.0000 0.00000  0.59204  0.50000  Biso   1.000  Zr
  Zr10     1.0000 0.00000  0.40796  0.50000  Biso   1.000  Zr
  Zr11     1.0000 0.00000  0.50000  0.59204  Biso   1.000  Zr
  Zr12     1.0000 0.00000  0.50000  0.40796  Biso   1.000  Zr
  Zr13     1.0000 0.59204  0.00000  0.50000  Biso   1.000  Zr
  Zr14     1.0000 0.40796  0.00000  0.50000  Biso   1.000  Zr
  Zr15     1.0000 0.50000  0.09204  0.50000  Biso   1.000  Zr
  Zr16     1.0000 0.50000  0.90796  0.50000  Biso   1.000  Zr
  Zr17     1.0000 0.50000  0.00000  0.59204  Biso   1.000  Zr
  Zr18     1.0000 0.50000  0.00000  0.40796  Biso   1.000  Zr
  Zr19     1.0000 0.59204  0.50000  0.00000  Biso   1.000  Zr
  Zr20     1.0000 0.40796  0.50000  0.00000  Biso   1.000  Zr
  Zr21     1.0000 0.50000  0.59204  0.00000  Biso   1.000  Zr
  Zr22     1.0000 0.50000  0.40796  0.00000  Biso   1.000  Zr
  Zr23     1.0000 0.50000  0.50000  0.09204  Biso   1.000  Zr
  Zr24     1.0000 0.50000  0.50000  0.90796  Biso   1.000  Zr
  O1       1.0000 0.04540  0.04540  0.04540  Biso   1.000  O 
  O2       1.0000 0.95460  0.95460  0.04540  Biso   1.000  O 
  O3       1.0000 0.95460  0.04540  0.95460  Biso   1.000  O 
  O4       1.0000 0.04540  0.95460  0.95460  Biso   1.000  O 
  O5       1.0000 0.04540  0.04540  0.95460  Biso   1.000  O 
  O6       1.0000 0.95460  0.95460  0.95460  Biso   1.000  O 
  O7       1.0000 0.04540  0.95460  0.04540  Biso   1.000  O 
  O8       1.0000 0.95460  0.04540  0.04540  Biso   1.000  O 
  O9       1.0000 0.04540  0.54540  0.54540  Biso   1.000  O 
  O10      1.0000 0.95460  0.45460  0.54540  Biso   1.000  O 
  O11      1.0000 0.95460  0.54540  0.45460  Biso   1.000  O 
  O12      1.0000 0.04540  0.45460  0.45460  Biso   1.000  O 
  O13      1.0000 0.04540  0.54540  0.45460  Biso   1.000  O 
  O14      1.0000 0.95460  0.45460  0.45460  Biso   1.000  O 
  O15      1.0000 0.04540  0.45460  0.54540  Biso   1.000  O 
  O16      1.0000 0.95460  0.54540  0.54540  Biso   1.000  O 
  O17      1.0000 0.54540  0.04540  0.54540  Biso   1.000  O 
  O18      1.0000 0.45460  0.95460  0.54540  Biso   1.000  O 
  O19      1.0000 0.45460  0.04540  0.45460  Biso   1.000  O 
  O20      1.0000 0.54540  0.95460  0.45460  Biso   1.000  O 
  O21      1.0000 0.54540  0.04540  0.45460  Biso   1.000  O 
  O22      1.0000 0.45460  0.95460  0.45460  Biso   1.000  O 
  O23      1.0000 0.54540  0.95460  0.54540  Biso   1.000  O 
  O24      1.0000 0.45460  0.04540  0.54540  Biso   1.000  O 
  O25      1.0000 0.54540  0.54540  0.04540  Biso   1.000  O 
  O26      1.0000 0.45460  0.45460  0.04540  Biso   1.000  O 
  O27      1.0000 0.45460  0.54540  0.95460  Biso   1.000  O 
  O28      1.0000 0.54540  0.45460  0.95460  Biso   1.000  O 
  O29      1.0000 0.54540  0.54540  0.95460  Biso   1.000  O 
  O30      1.0000 0.45460  0.45460  0.95460  Biso   1.000  O 
  O31      1.0000 0.54540  0.45460  0.04540  Biso   1.000  O 
  O32      1.0000 0.45460  0.54540  0.04540  Biso   1.000  O 
  O33      1.0000 0.13260  0.00000  0.07190  Biso   1.000  O 
  C1       1.0000 0.11720  0.00000  0.11720  Biso   1.000  C 
  O34      1.0000 0.07190  0.00000  0.13260  Biso   1.000  O 
  C2       1.0000 0.15650  0.00000  0.15650  Biso   1.000  C 
  C3       1.0000 0.20580  0.00000  0.14470  Biso   1.000  C 
  C4       1.0000 0.14470  0.00000  0.20580  Biso   1.000  C 
  C5       1.0000 0.24200  0.00000  0.17950  Biso   1.000  C 
  H1       1.0000 0.21490  0.00000  0.11140  Biso   1.000  H 
  C6       1.0000 0.17950  0.00000  0.24200  Biso   1.000  C 
  H2       1.0000 0.11140  0.00000  0.21490  Biso   1.000  H 
  C7       1.0000 0.23070  0.00000  0.23070  Biso   1.000  C 
  C8       1.0000 0.26930  0.00000  0.26930  Biso   1.000  C 
  H3       1.0000 0.27510  0.00000  0.16950  Biso   1.000  H 
  C9       1.0000 0.32050  0.00000  0.25800  Biso   1.000  C 
  H4       1.0000 0.16950  0.00000  0.27510  Biso   1.000  H 
  C10      1.0000 0.25800  0.00000  0.32050  Biso   1.000  C 
  C11      1.0000 0.35530  0.00000  0.29420  Biso   1.000  C 
  H5       1.0000 0.33050  0.00000  0.22490  Biso   1.000  H 
  C12      1.0000 0.29420  0.00000  0.35530  Biso   1.000  C 
  H6       1.0000 0.22490  0.00000  0.33050  Biso   1.000  H 
  C13      1.0000 0.34350  0.00000  0.34350  Biso   1.000  C 
  C14      1.0000 0.38280  0.00000  0.38280  Biso   1.000  C 
  O35      1.0000 0.40617  0.01822  0.28045  Biso   1.000  O 
  H7       1.0000 0.28510  0.00000  0.38860  Biso   1.000  H 
  O36      1.0000 0.42810  0.00000  0.36740  Biso   1.000  O 
  O37      1.0000 0.36740  0.00000  0.42810  Biso   1.000  O 
  C15      1.0000 0.42655  0.00743  0.23167  Biso   1.000  C 
  C16      1.0000 0.42512  0.05582  0.20228  Biso   1.000  C 
  H8       1.0000 0.40825  0.97483  0.21281  Biso   1.000  H 
  H9       1.0000 0.46509  0.99881  0.23633  Biso   1.000  H 
  H10      1.0000 0.38401  0.06172  0.20103  Biso   1.000  H 
  C17      1.0000 0.44596  0.05138  0.14740  Biso   1.000  C 
  H11      1.0000 0.43914  0.09079  0.21996  Biso   1.000  H 
  H12      1.0000 0.41777  0.07075  0.12401  Biso   1.000  H 
  H13      1.0000 0.44932  0.01196  0.13557  Biso   1.000  H 
  C18      1.0000 0.49696  0.07507  0.13574  Biso   1.000  C 
  H14      1.0000 0.49256  0.11438  0.14417  Biso   1.000  H 
  C19      1.0000 0.51393  0.07588  0.08154  Biso   1.000  C 
  H15      1.0000 0.52345  0.06041  0.16423  Biso   1.000  H 
  H16      1.0000 0.55592  0.07804  0.07885  Biso   1.000  H 
  H17      1.0000 0.49794  0.10805  0.06087  Biso   1.000  H 
  H18      1.0000 0.49937  0.04108  0.06564  Biso   1.000  H 
  O38      1.0000 0.86740  0.00000  0.07190  Biso   1.000  O 
  C20      1.0000 0.88280  0.00000  0.11720  Biso   1.000  C 
  O39      1.0000 0.92810  0.00000  0.13260  Biso   1.000  O 
  C21      1.0000 0.84350  0.00000  0.15650  Biso   1.000  C 
  C22      1.0000 0.79420  0.00000  0.14470  Biso   1.000  C 
  C23      1.0000 0.85530  0.00000  0.20580  Biso   1.000  C 
  C24      1.0000 0.75800  0.00000  0.17950  Biso   1.000  C 
  H19      1.0000 0.78510  0.00000  0.11140  Biso   1.000  H 
  C25      1.0000 0.82050  0.00000  0.24200  Biso   1.000  C 
  H20      1.0000 0.88860  0.00000  0.21490  Biso   1.000  H 
  C26      1.0000 0.76930  0.00000  0.23070  Biso   1.000  C 
  C27      1.0000 0.73070  0.00000  0.26930  Biso   1.000  C 
  H21      1.0000 0.72490  0.00000  0.16950  Biso   1.000  H 
  C28      1.0000 0.67950  0.00000  0.25800  Biso   1.000  C 
  H22      1.0000 0.83050  0.00000  0.27510  Biso   1.000  H 
  C29      1.0000 0.74200  0.00000  0.32050  Biso   1.000  C 
  C30      1.0000 0.64470  0.00000  0.29420  Biso   1.000  C 
  H23      1.0000 0.66950  0.00000  0.22490  Biso   1.000  H 
  C31      1.0000 0.70580  0.00000  0.35530  Biso   1.000  C 
  H24      1.0000 0.77510  0.00000  0.33050  Biso   1.000  H 
  C32      1.0000 0.65650  0.00000  0.34350  Biso   1.000  C 
  C33      1.0000 0.61720  0.00000  0.38280  Biso   1.000  C 
  O40      1.0000 0.59383  0.98178  0.28045  Biso   1.000  O 
  H25      1.0000 0.71490  0.00000  0.38860  Biso   1.000  H 
  O41      1.0000 0.57190  0.00000  0.36740  Biso   1.000  O 
  O42      1.0000 0.63260  0.00000  0.42810  Biso   1.000  O 
  C34      1.0000 0.57345  0.99258  0.23167  Biso   1.000  C 
  C35      1.0000 0.57487  0.94418  0.20228  Biso   1.000  C 
  H26      1.0000 0.59175  0.02517  0.21282  Biso   1.000  H 
  H27      1.0000 0.53491  0.00119  0.23634  Biso   1.000  H 
  H28      1.0000 0.61598  0.93827  0.20103  Biso   1.000  H 
  C36      1.0000 0.55404  0.94862  0.14740  Biso   1.000  C 
  H29      1.0000 0.56085  0.90921  0.21996  Biso   1.000  H 
  H30      1.0000 0.58224  0.92925  0.12402  Biso   1.000  H 
  H31      1.0000 0.55067  0.98805  0.13557  Biso   1.000  H 
  C37      1.0000 0.50304  0.92493  0.13573  Biso   1.000  C 
  H32      1.0000 0.50744  0.88562  0.14416  Biso   1.000  H 
  C38      1.0000 0.48608  0.92412  0.08153  Biso   1.000  C 
  H33      1.0000 0.47655  0.93959  0.16422  Biso   1.000  H 
  H34      1.0000 0.44409  0.92207  0.07884  Biso   1.000  H 
  H35      1.0000 0.50199  0.89189  0.06089  Biso   1.000  H 
  H36      1.0000 0.50074  0.95886  0.06559  Biso   1.000  H 
  O43      1.0000 0.86740  0.00000  0.92810  Biso   1.000  O 
  C39      1.0000 0.88280  0.00000  0.88280  Biso   1.000  C 
  O44      1.0000 0.92810  0.00000  0.86740  Biso   1.000  O 
  C40      1.0000 0.84350  0.00000  0.84350  Biso   1.000  C 
  C41      1.0000 0.79420  0.00000  0.85530  Biso   1.000  C 
  C42      1.0000 0.85530  0.00000  0.79420  Biso   1.000  C 
  C43      1.0000 0.75800  0.00000  0.82050  Biso   1.000  C 
  H37      1.0000 0.78510  0.00000  0.88860  Biso   1.000  H 
  C44      1.0000 0.82050  0.00000  0.75800  Biso   1.000  C 
  H38      1.0000 0.88860  0.00000  0.78510  Biso   1.000  H 
  C45      1.0000 0.76930  0.00000  0.76930  Biso   1.000  C 
  C46      1.0000 0.73070  0.00000  0.73070  Biso   1.000  C 
  H39      1.0000 0.72490  0.00000  0.83050  Biso   1.000  H 
  C47      1.0000 0.67950  0.00000  0.74200  Biso   1.000  C 
  H40      1.0000 0.83050  0.00000  0.72490  Biso   1.000  H 
  C48      1.0000 0.74200  0.00000  0.67950  Biso   1.000  C 
  C49      1.0000 0.64470  0.00000  0.70580  Biso   1.000  C 
  H41      1.0000 0.66950  0.00000  0.77510  Biso   1.000  H 
  C50      1.0000 0.70580  0.00000  0.64470  Biso   1.000  C 
  H42      1.0000 0.77510  0.00000  0.66950  Biso   1.000  H 
  C51      1.0000 0.65650  0.00000  0.65650  Biso   1.000  C 
  C52      1.0000 0.61720  0.00000  0.61720  Biso   1.000  C 
  O45      1.0000 0.59383  0.01822  0.71955  Biso   1.000  O 
  H43      1.0000 0.71490  0.00000  0.61140  Biso   1.000  H 
  O46      1.0000 0.57190  0.00000  0.63260  Biso   1.000  O 
  O47      1.0000 0.63260  0.00000  0.57190  Biso   1.000  O 
  C53      1.0000 0.57345  0.00743  0.76833  Biso   1.000  C 
  C54      1.0000 0.57488  0.05582  0.79772  Biso   1.000  C 
  H44      1.0000 0.59175  0.97483  0.78718  Biso   1.000  H 
  H45      1.0000 0.53491  0.99881  0.76366  Biso   1.000  H 
  H46      1.0000 0.61599  0.06172  0.79897  Biso   1.000  H 
  C55      1.0000 0.55404  0.05138  0.85260  Biso   1.000  C 
  H47      1.0000 0.56086  0.09079  0.78004  Biso   1.000  H 
  H48      1.0000 0.58224  0.07075  0.87599  Biso   1.000  H 
  H49      1.0000 0.55068  0.01196  0.86443  Biso   1.000  H 
  C56      1.0000 0.50304  0.07507  0.86426  Biso   1.000  C 
  H50      1.0000 0.50744  0.11438  0.85583  Biso   1.000  H 
  C57      1.0000 0.48608  0.07588  0.91846  Biso   1.000  C 
  H51      1.0000 0.47655  0.06041  0.83577  Biso   1.000  H 
  H52      1.0000 0.44409  0.07801  0.92115  Biso   1.000  H 
  H53      1.0000 0.50205  0.10806  0.93913  Biso   1.000  H 
  H54      1.0000 0.50065  0.04109  0.93437  Biso   1.000  H 
  O48      1.0000 0.13260  0.00000  0.92810  Biso   1.000  O 
  C58      1.0000 0.11720  0.00000  0.88280  Biso   1.000  C 
  O49      1.0000 0.07190  0.00000  0.86740  Biso   1.000  O 
  C59      1.0000 0.15650  0.00000  0.84350  Biso   1.000  C 
  C60      1.0000 0.20580  0.00000  0.85530  Biso   1.000  C 
  C61      1.0000 0.14470  0.00000  0.79420  Biso   1.000  C 
  C62      1.0000 0.24200  0.00000  0.82050  Biso   1.000  C 
  H55      1.0000 0.21490  0.00000  0.88860  Biso   1.000  H 
  C63      1.0000 0.17950  0.00000  0.75800  Biso   1.000  C 
  H56      1.0000 0.11140  0.00000  0.78510  Biso   1.000  H 
  C64      1.0000 0.23070  0.00000  0.76930  Biso   1.000  C 
  C65      1.0000 0.26930  0.00000  0.73070  Biso   1.000  C 
  H57      1.0000 0.27510  0.00000  0.83050  Biso   1.000  H 
  C66      1.0000 0.32050  0.00000  0.74200  Biso   1.000  C 
  H58      1.0000 0.16950  0.00000  0.72490  Biso   1.000  H 
  C67      1.0000 0.25800  0.00000  0.67950  Biso   1.000  C 
  C68      1.0000 0.35530  0.00000  0.70580  Biso   1.000  C 
  H59      1.0000 0.33050  0.00000  0.77510  Biso   1.000  H 
  C69      1.0000 0.29420  0.00000  0.64470  Biso   1.000  C 
  H60      1.0000 0.22490  0.00000  0.66950  Biso   1.000  H 
  C70      1.0000 0.34350  0.00000  0.65650  Biso   1.000  C 
  C71      1.0000 0.38280  0.00000  0.61720  Biso   1.000  C 
  O50      1.0000 0.40617  0.98178  0.71955  Biso   1.000  O 
  H61      1.0000 0.28510  0.00000  0.61140  Biso   1.000  H 
  O51      1.0000 0.42810  0.00000  0.63260  Biso   1.000  O 
  O52      1.0000 0.36740  0.00000  0.57190  Biso   1.000  O 
  C72      1.0000 0.42655  0.99258  0.76833  Biso   1.000  C 
  C73      1.0000 0.42513  0.94418  0.79772  Biso   1.000  C 
  H62      1.0000 0.40825  0.02517  0.78718  Biso   1.000  H 
  H63      1.0000 0.46509  0.00119  0.76366  Biso   1.000  H 
  H64      1.0000 0.38402  0.93827  0.79897  Biso   1.000  H 
  C74      1.0000 0.44596  0.94862  0.85260  Biso   1.000  C 
  H65      1.0000 0.43915  0.90921  0.78004  Biso   1.000  H 
  H66      1.0000 0.41776  0.92925  0.87599  Biso   1.000  H 
  H67      1.0000 0.44933  0.98805  0.86443  Biso   1.000  H 
  C75      1.0000 0.49696  0.92493  0.86427  Biso   1.000  C 
  H68      1.0000 0.49256  0.88562  0.85584  Biso   1.000  H 
  C76      1.0000 0.51392  0.92412  0.91847  Biso   1.000  C 
  H69      1.0000 0.52345  0.93959  0.83578  Biso   1.000  H 
  H70      1.0000 0.55591  0.92206  0.92116  Biso   1.000  H 
  H71      1.0000 0.49800  0.89190  0.93912  Biso   1.000  H 
  H72      1.0000 0.49927  0.95887  0.93440  Biso   1.000  H 
  O53      1.0000 0.07190  0.13260  0.00000  Biso   1.000  O 
  C77      1.0000 0.11720  0.11720  0.00000  Biso   1.000  C 
  O54      1.0000 0.13260  0.07190  0.00000  Biso   1.000  O 
  C78      1.0000 0.15650  0.15650  0.00000  Biso   1.000  C 
  C79      1.0000 0.14470  0.20580  0.00000  Biso   1.000  C 
  C80      1.0000 0.20580  0.14470  0.00000  Biso   1.000  C 
  C81      1.0000 0.17950  0.24200  0.00000  Biso   1.000  C 
  H73      1.0000 0.11140  0.21490  0.00000  Biso   1.000  H 
  C82      1.0000 0.24200  0.17950  0.00000  Biso   1.000  C 
  H74      1.0000 0.21490  0.11140  0.00000  Biso   1.000  H 
  C83      1.0000 0.23070  0.23070  0.00000  Biso   1.000  C 
  C84      1.0000 0.26930  0.26930  0.00000  Biso   1.000  C 
  H75      1.0000 0.16950  0.27510  0.00000  Biso   1.000  H 
  C85      1.0000 0.25800  0.32050  0.00000  Biso   1.000  C 
  H76      1.0000 0.27510  0.16950  0.00000  Biso   1.000  H 
  C86      1.0000 0.32050  0.25800  0.00000  Biso   1.000  C 
  C87      1.0000 0.29420  0.35530  0.00000  Biso   1.000  C 
  H77      1.0000 0.22490  0.33050  0.00000  Biso   1.000  H 
  C88      1.0000 0.35530  0.29420  0.00000  Biso   1.000  C 
  H78      1.0000 0.33050  0.22490  0.00000  Biso   1.000  H 
  C89      1.0000 0.34350  0.34350  0.00000  Biso   1.000  C 
  C90      1.0000 0.38280  0.38280  0.00000  Biso   1.000  C 
  O55      1.0000 0.27753  0.40804  0.00709  Biso   1.000  O 
  H79      1.0000 0.38860  0.28510  0.00000  Biso   1.000  H 
  O56      1.0000 0.36740  0.42810  0.00000  Biso   1.000  O 
  O57      1.0000 0.42810  0.36740  0.00000  Biso   1.000  O 
  C91      1.0000 0.22898  0.41102  0.03043  Biso   1.000  C 
  C92      1.0000 0.21276  0.46051  0.05305  Biso   1.000  C 
  H80      1.0000 0.22542  0.38327  0.06110  Biso   1.000  H 
  H81      1.0000 0.20129  0.40413  0.00039  Biso   1.000  H 
  H82      1.0000 0.22456  0.45729  0.09171  Biso   1.000  H 
  C93      1.0000 0.15552  0.46550  0.06018  Biso   1.000  C 
  H83      1.0000 0.22980  0.49408  0.03759  Biso   1.000  H 
  H84      1.0000 0.14299  0.43502  0.08582  Biso   1.000  H 
  H85      1.0000 0.13564  0.46112  0.02451  Biso   1.000  H 
  C94      1.0000 0.13836  0.51597  0.08384  Biso   1.000  C 
  H86      1.0000 0.15186  0.51749  0.12235  Biso   1.000  H 
  C95      1.0000 0.08064  0.51752  0.08326  Biso   1.000  C 
  H87      1.0000 0.15386  0.54857  0.06345  Biso   1.000  H 
  H88      1.0000 0.06894  0.54210  0.05215  Biso   1.000  H 
  H89      1.0000 0.06612  0.53392  0.11821  Biso   1.000  H 
  H90      1.0000 0.06326  0.48035  0.07873  Biso   1.000  H 
  O58      1.0000 0.07190  0.86740  0.00000  Biso   1.000  O 
  C96      1.0000 0.11720  0.88280  0.00000  Biso   1.000  C 
  O59      1.0000 0.13260  0.92810  0.00000  Biso   1.000  O 
  C97      1.0000 0.15650  0.84350  0.00000  Biso   1.000  C 
  C98      1.0000 0.14470  0.79420  0.00000  Biso   1.000  C 
  C99      1.0000 0.20580  0.85530  0.00000  Biso   1.000  C 
  C100     1.0000 0.17950  0.75800  0.00000  Biso   1.000  C 
  H91      1.0000 0.11140  0.78510  0.00000  Biso   1.000  H 
  C101     1.0000 0.24200  0.82050  0.00000  Biso   1.000  C 
  H92      1.0000 0.21490  0.88860  0.00000  Biso   1.000  H 
  C102     1.0000 0.23070  0.76930  0.00000  Biso   1.000  C 
  C103     1.0000 0.26930  0.73070  0.00000  Biso   1.000  C 
  H93      1.0000 0.16950  0.72490  0.00000  Biso   1.000  H 
  C104     1.0000 0.25800  0.67950  0.00000  Biso   1.000  C 
  H94      1.0000 0.27510  0.83050  0.00000  Biso   1.000  H 
  C105     1.0000 0.32050  0.74200  0.00000  Biso   1.000  C 
  C106     1.0000 0.29420  0.64470  0.00000  Biso   1.000  C 
  H95      1.0000 0.22490  0.66950  0.00000  Biso   1.000  H 
  C107     1.0000 0.35530  0.70580  0.00000  Biso   1.000  C 
  H96      1.0000 0.33050  0.77510  0.00000  Biso   1.000  H 
  C108     1.0000 0.34350  0.65650  0.00000  Biso   1.000  C 
  C109     1.0000 0.38280  0.61720  0.00000  Biso   1.000  C 
  O60      1.0000 0.27753  0.59196  0.99291  Biso   1.000  O 
  H97      1.0000 0.38860  0.71490  0.00000  Biso   1.000  H 
  O61      1.0000 0.36740  0.57190  0.00000  Biso   1.000  O 
  O62      1.0000 0.42810  0.63260  0.00000  Biso   1.000  O 
  C110     1.0000 0.22898  0.58898  0.96958  Biso   1.000  C 
  C111     1.0000 0.21276  0.53949  0.94695  Biso   1.000  C 
  H98      1.0000 0.22542  0.61673  0.93890  Biso   1.000  H 
  H99      1.0000 0.20129  0.59587  0.99961  Biso   1.000  H 
  H100     1.0000 0.22456  0.54271  0.90829  Biso   1.000  H 
  C112     1.0000 0.15552  0.53450  0.93982  Biso   1.000  C 
  H101     1.0000 0.22980  0.50592  0.96241  Biso   1.000  H 
  H102     1.0000 0.14299  0.56498  0.91418  Biso   1.000  H 
  H103     1.0000 0.13564  0.53888  0.97549  Biso   1.000  H 
  C113     1.0000 0.13836  0.48403  0.91615  Biso   1.000  C 
  H104     1.0000 0.15186  0.48251  0.87765  Biso   1.000  H 
  C114     1.0000 0.08064  0.48248  0.91674  Biso   1.000  C 
  H105     1.0000 0.15386  0.45143  0.93654  Biso   1.000  H 
  H106     1.0000 0.06894  0.45790  0.94785  Biso   1.000  H 
  H107     1.0000 0.06612  0.46608  0.88179  Biso   1.000  H 
  H108     1.0000 0.06326  0.51965  0.92127  Biso   1.000  H 
  O63      1.0000 0.92810  0.86740  0.00000  Biso   1.000  O 
  C115     1.0000 0.88280  0.88280  0.00000  Biso   1.000  C 
  O64      1.0000 0.86740  0.92810  0.00000  Biso   1.000  O 
  C116     1.0000 0.84350  0.84350  0.00000  Biso   1.000  C 
  C117     1.0000 0.85530  0.79420  0.00000  Biso   1.000  C 
  C118     1.0000 0.79420  0.85530  0.00000  Biso   1.000  C 
  C119     1.0000 0.82050  0.75800  0.00000  Biso   1.000  C 
  H109     1.0000 0.88860  0.78510  0.00000  Biso   1.000  H 
  C120     1.0000 0.75800  0.82050  0.00000  Biso   1.000  C 
  H110     1.0000 0.78510  0.88860  0.00000  Biso   1.000  H 
  C121     1.0000 0.76930  0.76930  0.00000  Biso   1.000  C 
  C122     1.0000 0.73070  0.73070  0.00000  Biso   1.000  C 
  H111     1.0000 0.83050  0.72490  0.00000  Biso   1.000  H 
  C123     1.0000 0.74200  0.67950  0.00000  Biso   1.000  C 
  H112     1.0000 0.72490  0.83050  0.00000  Biso   1.000  H 
  C124     1.0000 0.67950  0.74200  0.00000  Biso   1.000  C 
  C125     1.0000 0.70580  0.64470  0.00000  Biso   1.000  C 
  H113     1.0000 0.77510  0.66950  0.00000  Biso   1.000  H 
  C126     1.0000 0.64470  0.70580  0.00000  Biso   1.000  C 
  H114     1.0000 0.66950  0.77510  0.00000  Biso   1.000  H 
  C127     1.0000 0.65650  0.65650  0.00000  Biso   1.000  C 
  C128     1.0000 0.61720  0.61720  0.00000  Biso   1.000  C 
  O65      1.0000 0.72248  0.59196  0.00709  Biso   1.000  O 
  H115     1.0000 0.61140  0.71490  0.00000  Biso   1.000  H 
  O66      1.0000 0.63260  0.57190  0.00000  Biso   1.000  O 
  O67      1.0000 0.57190  0.63260  0.00000  Biso   1.000  O 
  C129     1.0000 0.77102  0.58898  0.03043  Biso   1.000  C 
  C130     1.0000 0.78724  0.53949  0.05305  Biso   1.000  C 
  H116     1.0000 0.77458  0.61673  0.06110  Biso   1.000  H 
  H117     1.0000 0.79871  0.59587  0.00039  Biso   1.000  H 
  H118     1.0000 0.77544  0.54271  0.09171  Biso   1.000  H 
  C131     1.0000 0.84448  0.53450  0.06018  Biso   1.000  C 
  H119     1.0000 0.77020  0.50592  0.03759  Biso   1.000  H 
  H120     1.0000 0.85700  0.56498  0.08582  Biso   1.000  H 
  H121     1.0000 0.86436  0.53888  0.02451  Biso   1.000  H 
  C132     1.0000 0.86164  0.48403  0.08384  Biso   1.000  C 
  H122     1.0000 0.84814  0.48251  0.12235  Biso   1.000  H 
  C133     1.0000 0.91936  0.48248  0.08326  Biso   1.000  C 
  H123     1.0000 0.84614  0.45143  0.06345  Biso   1.000  H 
  H124     1.0000 0.93106  0.45790  0.05215  Biso   1.000  H 
  H125     1.0000 0.93388  0.46608  0.11821  Biso   1.000  H 
  H126     1.0000 0.93674  0.51965  0.07873  Biso   1.000  H 
  O68      1.0000 0.92810  0.13260  0.00000  Biso   1.000  O 
  C134     1.0000 0.88280  0.11720  0.00000  Biso   1.000  C 
  O69      1.0000 0.86740  0.07190  0.00000  Biso   1.000  O 
  C135     1.0000 0.84350  0.15650  0.00000  Biso   1.000  C 
  C136     1.0000 0.85530  0.20580  0.00000  Biso   1.000  C 
  C137     1.0000 0.79420  0.14470  0.00000  Biso   1.000  C 
  C138     1.0000 0.82050  0.24200  0.00000  Biso   1.000  C 
  H127     1.0000 0.88860  0.21490  0.00000  Biso   1.000  H 
  C139     1.0000 0.75800  0.17950  0.00000  Biso   1.000  C 
  H128     1.0000 0.78510  0.11140  0.00000  Biso   1.000  H 
  C140     1.0000 0.76930  0.23070  0.00000  Biso   1.000  C 
  C141     1.0000 0.73070  0.26930  0.00000  Biso   1.000  C 
  H129     1.0000 0.83050  0.27510  0.00000  Biso   1.000  H 
  C142     1.0000 0.74200  0.32050  0.00000  Biso   1.000  C 
  H130     1.0000 0.72490  0.16950  0.00000  Biso   1.000  H 
  C143     1.0000 0.67950  0.25800  0.00000  Biso   1.000  C 
  C144     1.0000 0.70580  0.35530  0.00000  Biso   1.000  C 
  H131     1.0000 0.77510  0.33050  0.00000  Biso   1.000  H 
  C145     1.0000 0.64470  0.29420  0.00000  Biso   1.000  C 
  H132     1.0000 0.66950  0.22490  0.00000  Biso   1.000  H 
  C146     1.0000 0.65650  0.34350  0.00000  Biso   1.000  C 
  C147     1.0000 0.61720  0.38280  0.00000  Biso   1.000  C 
  O70      1.0000 0.72248  0.40804  0.99291  Biso   1.000  O 
  H133     1.0000 0.61140  0.28510  0.00000  Biso   1.000  H 
  O71      1.0000 0.63260  0.42810  0.00000  Biso   1.000  O 
  O72      1.0000 0.57190  0.36740  0.00000  Biso   1.000  O 
  C148     1.0000 0.77102  0.41102  0.96958  Biso   1.000  C 
  C149     1.0000 0.78724  0.46051  0.94695  Biso   1.000  C 
  H134     1.0000 0.77458  0.38327  0.93890  Biso   1.000  H 
  H135     1.0000 0.79871  0.40413  0.99961  Biso   1.000  H 
  H136     1.0000 0.77544  0.45729  0.90829  Biso   1.000  H 
  C150     1.0000 0.84448  0.46550  0.93982  Biso   1.000  C 
  H137     1.0000 0.77020  0.49408  0.96241  Biso   1.000  H 
  H138     1.0000 0.85700  0.43502  0.91418  Biso   1.000  H 
  H139     1.0000 0.86436  0.46112  0.97549  Biso   1.000  H 
  C151     1.0000 0.86164  0.51597  0.91615  Biso   1.000  C 
  H140     1.0000 0.84814  0.51749  0.87765  Biso   1.000  H 
  C152     1.0000 0.91936  0.51752  0.91674  Biso   1.000  C 
  H141     1.0000 0.84614  0.54857  0.93654  Biso   1.000  H 
  H142     1.0000 0.93106  0.54210  0.94785  Biso   1.000  H 
  H143     1.0000 0.93388  0.53392  0.88179  Biso   1.000  H 
  H144     1.0000 0.93674  0.48035  0.92127  Biso   1.000  H 
  O73      1.0000 0.00000  0.07190  0.13260  Biso   1.000  O 
  C153     1.0000 0.00000  0.11720  0.11720  Biso   1.000  C 
  O74      1.0000 0.00000  0.13260  0.07190  Biso   1.000  O 
  C154     1.0000 0.00000  0.15650  0.15650  Biso   1.000  C 
  C155     1.0000 0.00000  0.14470  0.20580  Biso   1.000  C 
  C156     1.0000 0.00000  0.20580  0.14470  Biso   1.000  C 
  C157     1.0000 0.00000  0.17950  0.24200  Biso   1.000  C 
  H145     1.0000 0.00000  0.11140  0.21490  Biso   1.000  H 
  C158     1.0000 0.00000  0.24200  0.17950  Biso   1.000  C 
  H146     1.0000 0.00000  0.21490  0.11140  Biso   1.000  H 
  C159     1.0000 0.00000  0.23070  0.23070  Biso   1.000  C 
  C160     1.0000 0.00000  0.26930  0.26930  Biso   1.000  C 
  H147     1.0000 0.00000  0.16950  0.27510  Biso   1.000  H 
  C161     1.0000 0.00000  0.25800  0.32050  Biso   1.000  C 
  H148     1.0000 0.00000  0.27510  0.16950  Biso   1.000  H 
  C162     1.0000 0.00000  0.32050  0.25800  Biso   1.000  C 
  C163     1.0000 0.00000  0.29420  0.35530  Biso   1.000  C 
  H149     1.0000 0.00000  0.22490  0.33050  Biso   1.000  H 
  C164     1.0000 0.00000  0.35530  0.29420  Biso   1.000  C 
  H150     1.0000 0.00000  0.33050  0.22490  Biso   1.000  H 
  C165     1.0000 0.00000  0.34350  0.34350  Biso   1.000  C 
  C166     1.0000 0.00000  0.38280  0.38280  Biso   1.000  C 
  O75      1.0000 0.00529  0.28107  0.40626  Biso   1.000  O 
  H151     1.0000 0.00000  0.38860  0.28510  Biso   1.000  H 
  O76      1.0000 0.00000  0.36740  0.42810  Biso   1.000  O 
  O77      1.0000 0.00000  0.42810  0.36740  Biso   1.000  O 
  C167     1.0000 0.99528  0.23394  0.42093  Biso   1.000  C 
  C168     1.0000 0.04505  0.21253  0.42731  Biso   1.000  C 
  H152     1.0000 0.96749  0.21361  0.39707  Biso   1.000  H 
  H153     1.0000 0.98090  0.23474  0.45963  Biso   1.000  H 
  H154     1.0000 0.06944  0.21993  0.39406  Biso   1.000  H 
  C169     1.0000 0.04826  0.15875  0.43802  Biso   1.000  C 
  H155     1.0000 0.05986  0.23300  0.46050  Biso   1.000  H 
  H156     1.0000 0.05500  0.13877  0.40183  Biso   1.000  H 
  H157     1.0000 0.01208  0.14554  0.45415  Biso   1.000  H 
  C170     1.0000 0.09237  0.14778  0.47472  Biso   1.000  C 
  H158     1.0000 0.12530  0.14254  0.45210  Biso   1.000  H 
  C171     1.0000 0.08495  0.10373  0.51032  Biso   1.000  C 
  H159     1.0000 0.10164  0.17906  0.49928  Biso   1.000  H 
  H160     1.0000 0.12115  0.09780  0.52876  Biso   1.000  H 
  H161     1.0000 0.07159  0.06938  0.48857  Biso   1.000  H 
  H162     1.0000 0.05710  0.10949  0.53963  Biso   1.000  H 
  O78      1.0000 0.00000  0.07190  0.86740  Biso   1.000  O 
  C172     1.0000 0.00000  0.11720  0.88280  Biso   1.000  C 
  O79      1.0000 0.00000  0.13260  0.92810  Biso   1.000  O 
  C173     1.0000 0.00000  0.15650  0.84350  Biso   1.000  C 
  C174     1.0000 0.00000  0.14470  0.79420  Biso   1.000  C 
  C175     1.0000 0.00000  0.20580  0.85530  Biso   1.000  C 
  C176     1.0000 0.00000  0.17950  0.75800  Biso   1.000  C 
  H163     1.0000 0.00000  0.11140  0.78510  Biso   1.000  H 
  C177     1.0000 0.00000  0.24200  0.82050  Biso   1.000  C 
  H164     1.0000 0.00000  0.21490  0.88860  Biso   1.000  H 
  C178     1.0000 0.00000  0.23070  0.76930  Biso   1.000  C 
  C179     1.0000 0.00000  0.26930  0.73070  Biso   1.000  C 
  H165     1.0000 0.00000  0.16950  0.72490  Biso   1.000  H 
  C180     1.0000 0.00000  0.25800  0.67950  Biso   1.000  C 
  H166     1.0000 0.00000  0.27510  0.83050  Biso   1.000  H 
  C181     1.0000 0.00000  0.32050  0.74200  Biso   1.000  C 
  C182     1.0000 0.00000  0.29420  0.64470  Biso   1.000  C 
  H167     1.0000 0.00000  0.22490  0.66950  Biso   1.000  H 
  C183     1.0000 0.00000  0.35530  0.70580  Biso   1.000  C 
  H168     1.0000 0.00000  0.33050  0.77510  Biso   1.000  H 
  C184     1.0000 0.00000  0.34350  0.65650  Biso   1.000  C 
  C185     1.0000 0.00000  0.38280  0.61720  Biso   1.000  C 
  O80      1.0000 0.99471  0.28107  0.59374  Biso   1.000  O 
  H169     1.0000 0.00000  0.38860  0.71490  Biso   1.000  H 
  O81      1.0000 0.00000  0.36740  0.57190  Biso   1.000  O 
  O82      1.0000 0.00000  0.42810  0.63260  Biso   1.000  O 
  C186     1.0000 0.00472  0.23393  0.57907  Biso   1.000  C 
  C187     1.0000 0.95494  0.21253  0.57269  Biso   1.000  C 
  H170     1.0000 0.03251  0.21360  0.60293  Biso   1.000  H 
  H171     1.0000 0.01910  0.23474  0.54037  Biso   1.000  H 
  H172     1.0000 0.93055  0.21995  0.60593  Biso   1.000  H 
  C188     1.0000 0.95174  0.15874  0.56199  Biso   1.000  C 
  H173     1.0000 0.94015  0.23300  0.53949  Biso   1.000  H 
  H174     1.0000 0.94496  0.13878  0.59819  Biso   1.000  H 
  H175     1.0000 0.98792  0.14551  0.54591  Biso   1.000  H 
  C189     1.0000 0.90764  0.14777  0.52527  Biso   1.000  C 
  H176     1.0000 0.87470  0.14253  0.54787  Biso   1.000  H 
  C190     1.0000 0.91507  0.10371  0.48968  Biso   1.000  C 
  H177     1.0000 0.89838  0.17905  0.50070  Biso   1.000  H 
  H178     1.0000 0.87889  0.09781  0.47121  Biso   1.000  H 
  H179     1.0000 0.92839  0.06936  0.51144  Biso   1.000  H 
  H180     1.0000 0.94296  0.10946  0.46040  Biso   1.000  H 
  O83      1.0000 0.00000  0.92810  0.86740  Biso   1.000  O 
  C191     1.0000 0.00000  0.88280  0.88280  Biso   1.000  C 
  O84      1.0000 0.00000  0.86740  0.92810  Biso   1.000  O 
  C192     1.0000 0.00000  0.84350  0.84350  Biso   1.000  C 
  C193     1.0000 0.00000  0.85530  0.79420  Biso   1.000  C 
  C194     1.0000 0.00000  0.79420  0.85530  Biso   1.000  C 
  C195     1.0000 0.00000  0.82050  0.75800  Biso   1.000  C 
  H181     1.0000 0.00000  0.88860  0.78510  Biso   1.000  H 
  C196     1.0000 0.00000  0.75800  0.82050  Biso   1.000  C 
  H182     1.0000 0.00000  0.78510  0.88860  Biso   1.000  H 
  C197     1.0000 0.00000  0.76930  0.76930  Biso   1.000  C 
  C198     1.0000 0.00000  0.73070  0.73070  Biso   1.000  C 
  H183     1.0000 0.00000  0.83050  0.72490  Biso   1.000  H 
  C199     1.0000 0.00000  0.74200  0.67950  Biso   1.000  C 
  H184     1.0000 0.00000  0.72490  0.83050  Biso   1.000  H 
  C200     1.0000 0.00000  0.67950  0.74200  Biso   1.000  C 
  C201     1.0000 0.00000  0.70580  0.64470  Biso   1.000  C 
  H185     1.0000 0.00000  0.77510  0.66950  Biso   1.000  H 
  C202     1.0000 0.00000  0.64470  0.70580  Biso   1.000  C 
  H186     1.0000 0.00000  0.66950  0.77510  Biso   1.000  H 
  C203     1.0000 0.00000  0.65650  0.65650  Biso   1.000  C 
  C204     1.0000 0.00000  0.61720  0.61720  Biso   1.000  C 
  O85      1.0000 0.00529  0.71893  0.59374  Biso   1.000  O 
  H187     1.0000 0.00000  0.61140  0.71490  Biso   1.000  H 
  O86      1.0000 0.00000  0.63260  0.57190  Biso   1.000  O 
  O87      1.0000 0.00000  0.57190  0.63260  Biso   1.000  O 
  C205     1.0000 0.99528  0.76607  0.57907  Biso   1.000  C 
  C206     1.0000 0.04505  0.78747  0.57269  Biso   1.000  C 
  H188     1.0000 0.96749  0.78640  0.60293  Biso   1.000  H 
  H189     1.0000 0.98090  0.76526  0.54037  Biso   1.000  H 
  H190     1.0000 0.06944  0.78006  0.60594  Biso   1.000  H 
  C207     1.0000 0.04826  0.84126  0.56198  Biso   1.000  C 
  H191     1.0000 0.05986  0.76700  0.53950  Biso   1.000  H 
  H192     1.0000 0.05501  0.86122  0.59817  Biso   1.000  H 
  H193     1.0000 0.01208  0.85447  0.54587  Biso   1.000  H 
  C208     1.0000 0.09237  0.85222  0.52528  Biso   1.000  C 
  H194     1.0000 0.12530  0.85746  0.54790  Biso   1.000  H 
  C209     1.0000 0.08494  0.89627  0.48968  Biso   1.000  C 
  H195     1.0000 0.10164  0.82094  0.50072  Biso   1.000  H 
  H196     1.0000 0.12114  0.90220  0.47124  Biso   1.000  H 
  H197     1.0000 0.07159  0.93063  0.51144  Biso   1.000  H 
  H198     1.0000 0.05709  0.89051  0.46038  Biso   1.000  H 
  O88      1.0000 0.00000  0.92810  0.13260  Biso   1.000  O 
  C210     1.0000 0.00000  0.88280  0.11720  Biso   1.000  C 
  O89      1.0000 0.00000  0.86740  0.07190  Biso   1.000  O 
  C211     1.0000 0.00000  0.84350  0.15650  Biso   1.000  C 
  C212     1.0000 0.00000  0.85530  0.20580  Biso   1.000  C 
  C213     1.0000 0.00000  0.79420  0.14470  Biso   1.000  C 
  C214     1.0000 0.00000  0.82050  0.24200  Biso   1.000  C 
  H199     1.0000 0.00000  0.88860  0.21490  Biso   1.000  H 
  C215     1.0000 0.00000  0.75800  0.17950  Biso   1.000  C 
  H200     1.0000 0.00000  0.78510  0.11140  Biso   1.000  H 
  C216     1.0000 0.00000  0.76930  0.23070  Biso   1.000  C 
  C217     1.0000 0.00000  0.73070  0.26930  Biso   1.000  C 
  H201     1.0000 0.00000  0.83050  0.27510  Biso   1.000  H 
  C218     1.0000 0.00000  0.74200  0.32050  Biso   1.000  C 
  H202     1.0000 0.00000  0.72490  0.16950  Biso   1.000  H 
  C219     1.0000 0.00000  0.67950  0.25800  Biso   1.000  C 
  C220     1.0000 0.00000  0.70580  0.35530  Biso   1.000  C 
  H203     1.0000 0.00000  0.77510  0.33050  Biso   1.000  H 
  C221     1.0000 0.00000  0.64470  0.29420  Biso   1.000  C 
  H204     1.0000 0.00000  0.66950  0.22490  Biso   1.000  H 
  C222     1.0000 0.00000  0.65650  0.34350  Biso   1.000  C 
  C223     1.0000 0.00000  0.61720  0.38280  Biso   1.000  C 
  O90      1.0000 0.99471  0.71893  0.40626  Biso   1.000  O 
  H205     1.0000 0.00000  0.61140  0.28510  Biso   1.000  H 
  O91      1.0000 0.00000  0.63260  0.42810  Biso   1.000  O 
  O92      1.0000 0.00000  0.57190  0.36740  Biso   1.000  O 
  C224     1.0000 0.00472  0.76607  0.42093  Biso   1.000  C 
  C225     1.0000 0.95494  0.78747  0.42731  Biso   1.000  C 
  H206     1.0000 0.03251  0.78640  0.39707  Biso   1.000  H 
  H207     1.0000 0.01910  0.76526  0.45963  Biso   1.000  H 
  H208     1.0000 0.93056  0.78006  0.39407  Biso   1.000  H 
  C226     1.0000 0.95174  0.84126  0.43802  Biso   1.000  C 
  H209     1.0000 0.94015  0.76700  0.46051  Biso   1.000  H 
  H210     1.0000 0.94497  0.86122  0.40182  Biso   1.000  H 
  H211     1.0000 0.98793  0.85448  0.45411  Biso   1.000  H 
  C227     1.0000 0.90764  0.85223  0.47473  Biso   1.000  C 
  H212     1.0000 0.87470  0.85746  0.45212  Biso   1.000  H 
  C228     1.0000 0.91507  0.89628  0.51032  Biso   1.000  C 
  H213     1.0000 0.89838  0.82095  0.49930  Biso   1.000  H 
  H214     1.0000 0.87888  0.90219  0.52878  Biso   1.000  H 
  H215     1.0000 0.92839  0.93064  0.48856  Biso   1.000  H 
  H216     1.0000 0.94294  0.89053  0.53961  Biso   1.000  H 
  O93      1.0000 0.13260  0.50000  0.57190  Biso   1.000  O 
  C229     1.0000 0.11720  0.50000  0.61720  Biso   1.000  C 
  O94      1.0000 0.07190  0.50000  0.63260  Biso   1.000  O 
  C230     1.0000 0.15650  0.50000  0.65650  Biso   1.000  C 
  C231     1.0000 0.20580  0.50000  0.64470  Biso   1.000  C 
  C232     1.0000 0.14470  0.50000  0.70580  Biso   1.000  C 
  C233     1.0000 0.24200  0.50000  0.67950  Biso   1.000  C 
  H217     1.0000 0.21490  0.50000  0.61140  Biso   1.000  H 
  C234     1.0000 0.17950  0.50000  0.74200  Biso   1.000  C 
  H218     1.0000 0.11140  0.50000  0.71490  Biso   1.000  H 
  C235     1.0000 0.23070  0.50000  0.73070  Biso   1.000  C 
  C236     1.0000 0.26930  0.50000  0.76930  Biso   1.000  C 
  H219     1.0000 0.27510  0.50000  0.66950  Biso   1.000  H 
  C237     1.0000 0.32050  0.50000  0.75800  Biso   1.000  C 
  H220     1.0000 0.16950  0.50000  0.77510  Biso   1.000  H 
  C238     1.0000 0.25800  0.50000  0.82050  Biso   1.000  C 
  C239     1.0000 0.35530  0.50000  0.79420  Biso   1.000  C 
  H221     1.0000 0.33050  0.50000  0.72490  Biso   1.000  H 
  C240     1.0000 0.29420  0.50000  0.85530  Biso   1.000  C 
  H222     1.0000 0.22490  0.50000  0.83050  Biso   1.000  H 
  C241     1.0000 0.34350  0.50000  0.84350  Biso   1.000  C 
  C242     1.0000 0.38280  0.50000  0.88280  Biso   1.000  C 
  O95      1.0000 0.40811  0.50666  0.77752  Biso   1.000  O 
  H223     1.0000 0.28510  0.50000  0.88860  Biso   1.000  H 
  O96      1.0000 0.42810  0.50000  0.86740  Biso   1.000  O 
  O97      1.0000 0.36740  0.50000  0.92810  Biso   1.000  O 
  C243     1.0000 0.41099  0.52951  0.72863  Biso   1.000  C 
  C244     1.0000 0.45951  0.55381  0.71214  Biso   1.000  C 
  H224     1.0000 0.38287  0.55973  0.72452  Biso   1.000  H 
  H225     1.0000 0.40479  0.49903  0.70128  Biso   1.000  H 
  H226     1.0000 0.45627  0.59196  0.72542  Biso   1.000  H 
  C245     1.0000 0.46379  0.56234  0.65484  Biso   1.000  C 
  H227     1.0000 0.49344  0.53777  0.72775  Biso   1.000  H 
  H228     1.0000 0.43364  0.58855  0.64276  Biso   1.000  H 
  H229     1.0000 0.45894  0.52703  0.63445  Biso   1.000  H 
  C246     1.0000 0.51500  0.58551  0.63850  Biso   1.000  C 
  H230     1.0000 0.51630  0.62433  0.65110  Biso   1.000  H 
  C247     1.0000 0.51744  0.58392  0.58144  Biso   1.000  C 
  H231     1.0000 0.54731  0.56509  0.65461  Biso   1.000  H 
  H232     1.0000 0.52618  0.54506  0.56989  Biso   1.000  H 
  H233     1.0000 0.54794  0.60827  0.56796  Biso   1.000  H 
  H234     1.0000 0.48208  0.59636  0.56393  Biso   1.000  H 
  O98      1.0000 0.86740  0.50000  0.57190  Biso   1.000  O 
  C248     1.0000 0.88280  0.50000  0.61720  Biso   1.000  C 
  O99      1.0000 0.92810  0.50000  0.63260  Biso   1.000  O 
  C249     1.0000 0.84350  0.50000  0.65650  Biso   1.000  C 
  C250     1.0000 0.79420  0.50000  0.64470  Biso   1.000  C 
  C251     1.0000 0.85530  0.50000  0.70580  Biso   1.000  C 
  C252     1.0000 0.75800  0.50000  0.67950  Biso   1.000  C 
  H235     1.0000 0.78510  0.50000  0.61140  Biso   1.000  H 
  C253     1.0000 0.82050  0.50000  0.74200  Biso   1.000  C 
  H236     1.0000 0.88860  0.50000  0.71490  Biso   1.000  H 
  C254     1.0000 0.76930  0.50000  0.73070  Biso   1.000  C 
  C255     1.0000 0.73070  0.50000  0.76930  Biso   1.000  C 
  H237     1.0000 0.72490  0.50000  0.66950  Biso   1.000  H 
  C256     1.0000 0.67950  0.50000  0.75800  Biso   1.000  C 
  H238     1.0000 0.83050  0.50000  0.77510  Biso   1.000  H 
  C257     1.0000 0.74200  0.50000  0.82050  Biso   1.000  C 
  C258     1.0000 0.64470  0.50000  0.79420  Biso   1.000  C 
  H239     1.0000 0.66950  0.50000  0.72490  Biso   1.000  H 
  C259     1.0000 0.70580  0.50000  0.85530  Biso   1.000  C 
  H240     1.0000 0.77510  0.50000  0.83050  Biso   1.000  H 
  C260     1.0000 0.65650  0.50000  0.84350  Biso   1.000  C 
  C261     1.0000 0.61720  0.50000  0.88280  Biso   1.000  C 
  O100     1.0000 0.59189  0.49334  0.77752  Biso   1.000  O 
  H241     1.0000 0.71490  0.50000  0.88860  Biso   1.000  H 
  O101     1.0000 0.57190  0.50000  0.86740  Biso   1.000  O 
  O102     1.0000 0.63260  0.50000  0.92810  Biso   1.000  O 
  C262     1.0000 0.58901  0.47049  0.72863  Biso   1.000  C 
  C263     1.0000 0.54049  0.44619  0.71214  Biso   1.000  C 
  H242     1.0000 0.61713  0.44027  0.72452  Biso   1.000  H 
  H243     1.0000 0.59521  0.50097  0.70128  Biso   1.000  H 
  H244     1.0000 0.54373  0.40804  0.72542  Biso   1.000  H 
  C264     1.0000 0.53621  0.43766  0.65484  Biso   1.000  C 
  H245     1.0000 0.50656  0.46223  0.72775  Biso   1.000  H 
  H246     1.0000 0.56636  0.41145  0.64276  Biso   1.000  H 
  H247     1.0000 0.54106  0.47297  0.63445  Biso   1.000  H 
  C265     1.0000 0.48500  0.41449  0.63850  Biso   1.000  C 
  H248     1.0000 0.48370  0.37567  0.65110  Biso   1.000  H 
  C266     1.0000 0.48256  0.41608  0.58144  Biso   1.000  C 
  H249     1.0000 0.45269  0.43491  0.65461  Biso   1.000  H 
  H250     1.0000 0.47382  0.45494  0.56989  Biso   1.000  H 
  H251     1.0000 0.45206  0.39173  0.56796  Biso   1.000  H 
  H252     1.0000 0.51792  0.40364  0.56393  Biso   1.000  H 
  O103     1.0000 0.86740  0.50000  0.42810  Biso   1.000  O 
  C267     1.0000 0.88280  0.50000  0.38280  Biso   1.000  C 
  O104     1.0000 0.92810  0.50000  0.36740  Biso   1.000  O 
  C268     1.0000 0.84350  0.50000  0.34350  Biso   1.000  C 
  C269     1.0000 0.79420  0.50000  0.35530  Biso   1.000  C 
  C270     1.0000 0.85530  0.50000  0.29420  Biso   1.000  C 
  C271     1.0000 0.75800  0.50000  0.32050  Biso   1.000  C 
  H253     1.0000 0.78510  0.50000  0.38860  Biso   1.000  H 
  C272     1.0000 0.82050  0.50000  0.25800  Biso   1.000  C 
  H254     1.0000 0.88860  0.50000  0.28510  Biso   1.000  H 
  C273     1.0000 0.76930  0.50000  0.26930  Biso   1.000  C 
  C274     1.0000 0.73070  0.50000  0.23070  Biso   1.000  C 
  H255     1.0000 0.72490  0.50000  0.33050  Biso   1.000  H 
  C275     1.0000 0.67950  0.50000  0.24200  Biso   1.000  C 
  H256     1.0000 0.83050  0.50000  0.22490  Biso   1.000  H 
  C276     1.0000 0.74200  0.50000  0.17950  Biso   1.000  C 
  C277     1.0000 0.64470  0.50000  0.20580  Biso   1.000  C 
  H257     1.0000 0.66950  0.50000  0.27510  Biso   1.000  H 
  C278     1.0000 0.70580  0.50000  0.14470  Biso   1.000  C 
  H258     1.0000 0.77510  0.50000  0.16950  Biso   1.000  H 
  C279     1.0000 0.65650  0.50000  0.15650  Biso   1.000  C 
  C280     1.0000 0.61720  0.50000  0.11720  Biso   1.000  C 
  O105     1.0000 0.59189  0.50666  0.22248  Biso   1.000  O 
  H259     1.0000 0.71490  0.50000  0.11140  Biso   1.000  H 
  O106     1.0000 0.57190  0.50000  0.13260  Biso   1.000  O 
  O107     1.0000 0.63260  0.50000  0.07190  Biso   1.000  O 
  C281     1.0000 0.58901  0.52951  0.27137  Biso   1.000  C 
  C282     1.0000 0.54049  0.55381  0.28786  Biso   1.000  C 
  H260     1.0000 0.61713  0.55973  0.27548  Biso   1.000  H 
  H261     1.0000 0.59521  0.49903  0.29872  Biso   1.000  H 
  H262     1.0000 0.54373  0.59196  0.27458  Biso   1.000  H 
  C283     1.0000 0.53621  0.56234  0.34516  Biso   1.000  C 
  H263     1.0000 0.50656  0.53777  0.27225  Biso   1.000  H 
  H264     1.0000 0.56636  0.58855  0.35724  Biso   1.000  H 
  H265     1.0000 0.54106  0.52703  0.36555  Biso   1.000  H 
  C284     1.0000 0.48500  0.58551  0.36150  Biso   1.000  C 
  H266     1.0000 0.48370  0.62433  0.34890  Biso   1.000  H 
  C285     1.0000 0.48256  0.58392  0.41856  Biso   1.000  C 
  H267     1.0000 0.45269  0.56509  0.34539  Biso   1.000  H 
  H268     1.0000 0.47382  0.54506  0.43011  Biso   1.000  H 
  H269     1.0000 0.45206  0.60827  0.43204  Biso   1.000  H 
  H270     1.0000 0.51792  0.59636  0.43607  Biso   1.000  H 
  O108     1.0000 0.13260  0.50000  0.42810  Biso   1.000  O 
  C286     1.0000 0.11720  0.50000  0.38280  Biso   1.000  C 
  O109     1.0000 0.07190  0.50000  0.36740  Biso   1.000  O 
  C287     1.0000 0.15650  0.50000  0.34350  Biso   1.000  C 
  C288     1.0000 0.20580  0.50000  0.35530  Biso   1.000  C 
  C289     1.0000 0.14470  0.50000  0.29420  Biso   1.000  C 
  C290     1.0000 0.24200  0.50000  0.32050  Biso   1.000  C 
  H271     1.0000 0.21490  0.50000  0.38860  Biso   1.000  H 
  C291     1.0000 0.17950  0.50000  0.25800  Biso   1.000  C 
  H272     1.0000 0.11140  0.50000  0.28510  Biso   1.000  H 
  C292     1.0000 0.23070  0.50000  0.26930  Biso   1.000  C 
  C293     1.0000 0.26930  0.50000  0.23070  Biso   1.000  C 
  H273     1.0000 0.27510  0.50000  0.33050  Biso   1.000  H 
  C294     1.0000 0.32050  0.50000  0.24200  Biso   1.000  C 
  H274     1.0000 0.16950  0.50000  0.22490  Biso   1.000  H 
  C295     1.0000 0.25800  0.50000  0.17950  Biso   1.000  C 
  C296     1.0000 0.35530  0.50000  0.20580  Biso   1.000  C 
  H275     1.0000 0.33050  0.50000  0.27510  Biso   1.000  H 
  C297     1.0000 0.29420  0.50000  0.14470  Biso   1.000  C 
  H276     1.0000 0.22490  0.50000  0.16950  Biso   1.000  H 
  C298     1.0000 0.34350  0.50000  0.15650  Biso   1.000  C 
  C299     1.0000 0.38280  0.50000  0.11720  Biso   1.000  C 
  O110     1.0000 0.40811  0.49334  0.22248  Biso   1.000  O 
  H277     1.0000 0.28510  0.50000  0.11140  Biso   1.000  H 
  O111     1.0000 0.42810  0.50000  0.13260  Biso   1.000  O 
  O112     1.0000 0.36740  0.50000  0.07190  Biso   1.000  O 
  C300     1.0000 0.41099  0.47049  0.27137  Biso   1.000  C 
  C301     1.0000 0.45951  0.44619  0.28786  Biso   1.000  C 
  H278     1.0000 0.38287  0.44027  0.27548  Biso   1.000  H 
  H279     1.0000 0.40479  0.50097  0.29872  Biso   1.000  H 
  H280     1.0000 0.45627  0.40804  0.27458  Biso   1.000  H 
  C302     1.0000 0.46379  0.43766  0.34516  Biso   1.000  C 
  H281     1.0000 0.49344  0.46223  0.27225  Biso   1.000  H 
  H282     1.0000 0.43364  0.41145  0.35724  Biso   1.000  H 
  H283     1.0000 0.45894  0.47297  0.36555  Biso   1.000  H 
  C303     1.0000 0.51500  0.41449  0.36150  Biso   1.000  C 
  H284     1.0000 0.51630  0.37567  0.34890  Biso   1.000  H 
  C304     1.0000 0.51744  0.41608  0.41856  Biso   1.000  C 
  H285     1.0000 0.54731  0.43491  0.34539  Biso   1.000  H 
  H286     1.0000 0.52618  0.45494  0.43011  Biso   1.000  H 
  H287     1.0000 0.54794  0.39173  0.43204  Biso   1.000  H 
  H288     1.0000 0.48208  0.40364  0.43607  Biso   1.000  H 
  O113     1.0000 0.07190  0.63260  0.50000  Biso   1.000  O 
  C305     1.0000 0.11720  0.61720  0.50000  Biso   1.000  C 
  O114     1.0000 0.13260  0.57190  0.50000  Biso   1.000  O 
  C306     1.0000 0.15650  0.65650  0.50000  Biso   1.000  C 
  C307     1.0000 0.14470  0.70580  0.50000  Biso   1.000  C 
  C308     1.0000 0.20580  0.64470  0.50000  Biso   1.000  C 
  C309     1.0000 0.17950  0.74200  0.50000  Biso   1.000  C 
  H289     1.0000 0.11140  0.71490  0.50000  Biso   1.000  H 
  C310     1.0000 0.24200  0.67950  0.50000  Biso   1.000  C 
  H290     1.0000 0.21490  0.61140  0.50000  Biso   1.000  H 
  C311     1.0000 0.23070  0.73070  0.50000  Biso   1.000  C 
  C312     1.0000 0.26930  0.76930  0.50000  Biso   1.000  C 
  H291     1.0000 0.16950  0.77510  0.50000  Biso   1.000  H 
  C313     1.0000 0.25800  0.82050  0.50000  Biso   1.000  C 
  H292     1.0000 0.27510  0.66950  0.50000  Biso   1.000  H 
  C314     1.0000 0.32050  0.75800  0.50000  Biso   1.000  C 
  C315     1.0000 0.29420  0.85530  0.50000  Biso   1.000  C 
  H293     1.0000 0.22490  0.83050  0.50000  Biso   1.000  H 
  C316     1.0000 0.35530  0.79420  0.50000  Biso   1.000  C 
  H294     1.0000 0.33050  0.72490  0.50000  Biso   1.000  H 
  C317     1.0000 0.34350  0.84350  0.50000  Biso   1.000  C 
  C318     1.0000 0.38280  0.88280  0.50000  Biso   1.000  C 
  O115     1.0000 0.27782  0.90792  0.50160  Biso   1.000  O 
  H295     1.0000 0.38860  0.78510  0.50000  Biso   1.000  H 
  O116     1.0000 0.36740  0.92810  0.50000  Biso   1.000  O 
  O117     1.0000 0.42810  0.86740  0.50000  Biso   1.000  O 
  C319     1.0000 0.25961  0.92058  0.55036  Biso   1.000  C 
  C320     1.0000 0.21354  0.95826  0.54720  Biso   1.000  C 
  H296     1.0000 0.29132  0.93560  0.57046  Biso   1.000  H 
  H297     1.0000 0.24685  0.88801  0.57118  Biso   1.000  H 
  H298     1.0000 0.23123  0.99563  0.54864  Biso   1.000  H 
  C321     1.0000 0.17619  0.95818  0.59223  Biso   1.000  C 
  H299     1.0000 0.19391  0.95502  0.51050  Biso   1.000  H 
  H300     1.0000 0.19249  0.94919  0.62803  Biso   1.000  H 
  H301     1.0000 0.14819  0.92910  0.58425  Biso   1.000  H 
  C322     1.0000 0.14470  0.00628  0.59269  Biso   1.000  C 
  H302     1.0000 0.16740  0.04111  0.59483  Biso   1.000  H 
  C323     1.0000 0.10790  0.00501  0.63815  Biso   1.000  C 
  H303     1.0000 0.12197  0.00635  0.55739  Biso   1.000  H 
  H304     1.0000 0.07166  0.98933  0.62461  Biso   1.000  H 
  H305     1.0000 0.09824  0.04386  0.65380  Biso   1.000  H 
  H306     1.0000 0.12011  0.97991  0.66909  Biso   1.000  H 
  O118     1.0000 0.07190  0.36740  0.50000  Biso   1.000  O 
  C324     1.0000 0.11720  0.38280  0.50000  Biso   1.000  C 
  O119     1.0000 0.13260  0.42810  0.50000  Biso   1.000  O 
  C325     1.0000 0.15650  0.34350  0.50000  Biso   1.000  C 
  C326     1.0000 0.14470  0.29420  0.50000  Biso   1.000  C 
  C327     1.0000 0.20580  0.35530  0.50000  Biso   1.000  C 
  C328     1.0000 0.17950  0.25800  0.50000  Biso   1.000  C 
  H307     1.0000 0.11140  0.28510  0.50000  Biso   1.000  H 
  C329     1.0000 0.24200  0.32050  0.50000  Biso   1.000  C 
  H308     1.0000 0.21490  0.38860  0.50000  Biso   1.000  H 
  C330     1.0000 0.23070  0.26930  0.50000  Biso   1.000  C 
  C331     1.0000 0.26930  0.23070  0.50000  Biso   1.000  C 
  H309     1.0000 0.16950  0.22490  0.50000  Biso   1.000  H 
  C332     1.0000 0.25800  0.17950  0.50000  Biso   1.000  C 
  H310     1.0000 0.27510  0.33050  0.50000  Biso   1.000  H 
  C333     1.0000 0.32050  0.24200  0.50000  Biso   1.000  C 
  C334     1.0000 0.29420  0.14470  0.50000  Biso   1.000  C 
  H311     1.0000 0.22490  0.16950  0.50000  Biso   1.000  H 
  C335     1.0000 0.35530  0.20580  0.50000  Biso   1.000  C 
  H312     1.0000 0.33050  0.27510  0.50000  Biso   1.000  H 
  C336     1.0000 0.34350  0.15650  0.50000  Biso   1.000  C 
  C337     1.0000 0.38280  0.11720  0.50000  Biso   1.000  C 
  O120     1.0000 0.27782  0.09208  0.49840  Biso   1.000  O 
  H313     1.0000 0.38860  0.21490  0.50000  Biso   1.000  H 
  O121     1.0000 0.36740  0.07190  0.50000  Biso   1.000  O 
  O122     1.0000 0.42810  0.13260  0.50000  Biso   1.000  O 
  C338     1.0000 0.25961  0.07942  0.44964  Biso   1.000  C 
  C339     1.0000 0.21354  0.04174  0.45280  Biso   1.000  C 
  H314     1.0000 0.29132  0.06440  0.42954  Biso   1.000  H 
  H315     1.0000 0.24685  0.11200  0.42882  Biso   1.000  H 
  H316     1.0000 0.23123  0.00437  0.45136  Biso   1.000  H 
  C340     1.0000 0.17619  0.04182  0.40777  Biso   1.000  C 
  H317     1.0000 0.19391  0.04498  0.48950  Biso   1.000  H 
  H318     1.0000 0.19249  0.05082  0.37197  Biso   1.000  H 
  H319     1.0000 0.14819  0.07090  0.41575  Biso   1.000  H 
  C341     1.0000 0.14470  0.99372  0.40731  Biso   1.000  C 
  H320     1.0000 0.16740  0.95889  0.40517  Biso   1.000  H 
  C342     1.0000 0.10790  0.99499  0.36185  Biso   1.000  C 
  H321     1.0000 0.12197  0.99365  0.44261  Biso   1.000  H 
  H322     1.0000 0.07166  0.01067  0.37539  Biso   1.000  H 
  H323     1.0000 0.09824  0.95615  0.34620  Biso   1.000  H 
  H324     1.0000 0.12011  0.02009  0.33091  Biso   1.000  H 
  O123     1.0000 0.92810  0.36740  0.50000  Biso   1.000  O 
  C343     1.0000 0.88280  0.38280  0.50000  Biso   1.000  C 
  O124     1.0000 0.86740  0.42810  0.50000  Biso   1.000  O 
  C344     1.0000 0.84350  0.34350  0.50000  Biso   1.000  C 
  C345     1.0000 0.85530  0.29420  0.50000  Biso   1.000  C 
  C346     1.0000 0.79420  0.35530  0.50000  Biso   1.000  C 
  C347     1.0000 0.82050  0.25800  0.50000  Biso   1.000  C 
  H325     1.0000 0.88860  0.28510  0.50000  Biso   1.000  H 
  C348     1.0000 0.75800  0.32050  0.50000  Biso   1.000  C 
  H326     1.0000 0.78510  0.38860  0.50000  Biso   1.000  H 
  C349     1.0000 0.76930  0.26930  0.50000  Biso   1.000  C 
  C350     1.0000 0.73070  0.23070  0.50000  Biso   1.000  C 
  H327     1.0000 0.83050  0.22490  0.50000  Biso   1.000  H 
  C351     1.0000 0.74200  0.17950  0.50000  Biso   1.000  C 
  H328     1.0000 0.72490  0.33050  0.50000  Biso   1.000  H 
  C352     1.0000 0.67950  0.24200  0.50000  Biso   1.000  C 
  C353     1.0000 0.70580  0.14470  0.50000  Biso   1.000  C 
  H329     1.0000 0.77510  0.16950  0.50000  Biso   1.000  H 
  C354     1.0000 0.64470  0.20580  0.50000  Biso   1.000  C 
  H330     1.0000 0.66950  0.27510  0.50000  Biso   1.000  H 
  C355     1.0000 0.65650  0.15650  0.50000  Biso   1.000  C 
  C356     1.0000 0.61720  0.11720  0.50000  Biso   1.000  C 
  O125     1.0000 0.72218  0.09208  0.50160  Biso   1.000  O 
  H331     1.0000 0.61140  0.21490  0.50000  Biso   1.000  H 
  O126     1.0000 0.63260  0.07190  0.50000  Biso   1.000  O 
  O127     1.0000 0.57190  0.13260  0.50000  Biso   1.000  O 
  C357     1.0000 0.74039  0.07942  0.55037  Biso   1.000  C 
  C358     1.0000 0.78645  0.04173  0.54721  Biso   1.000  C 
  H332     1.0000 0.70869  0.06441  0.57048  Biso   1.000  H 
  H333     1.0000 0.75317  0.11200  0.57117  Biso   1.000  H 
  H334     1.0000 0.76876  0.00437  0.54865  Biso   1.000  H 
  C359     1.0000 0.82381  0.04181  0.59223  Biso   1.000  C 
  H335     1.0000 0.80609  0.04496  0.51050  Biso   1.000  H 
  H336     1.0000 0.80751  0.05080  0.62803  Biso   1.000  H 
  H337     1.0000 0.85181  0.07089  0.58425  Biso   1.000  H 
  C360     1.0000 0.85530  0.99371  0.59269  Biso   1.000  C 
  H338     1.0000 0.83261  0.95887  0.59481  Biso   1.000  H 
  C361     1.0000 0.89210  0.99498  0.63816  Biso   1.000  C 
  H339     1.0000 0.87805  0.99366  0.55739  Biso   1.000  H 
  H340     1.0000 0.92835  0.01065  0.62461  Biso   1.000  H 
  H341     1.0000 0.90174  0.95614  0.65381  Biso   1.000  H 
  H342     1.0000 0.87989  0.02009  0.66909  Biso   1.000  H 
  O128     1.0000 0.92810  0.63260  0.50000  Biso   1.000  O 
  C362     1.0000 0.88280  0.61720  0.50000  Biso   1.000  C 
  O129     1.0000 0.86740  0.57190  0.50000  Biso   1.000  O 
  C363     1.0000 0.84350  0.65650  0.50000  Biso   1.000  C 
  C364     1.0000 0.85530  0.70580  0.50000  Biso   1.000  C 
  C365     1.0000 0.79420  0.64470  0.50000  Biso   1.000  C 
  C366     1.0000 0.82050  0.74200  0.50000  Biso   1.000  C 
  H343     1.0000 0.88860  0.71490  0.50000  Biso   1.000  H 
  C367     1.0000 0.75800  0.67950  0.50000  Biso   1.000  C 
  H344     1.0000 0.78510  0.61140  0.50000  Biso   1.000  H 
  C368     1.0000 0.76930  0.73070  0.50000  Biso   1.000  C 
  C369     1.0000 0.73070  0.76930  0.50000  Biso   1.000  C 
  H345     1.0000 0.83050  0.77510  0.50000  Biso   1.000  H 
  C370     1.0000 0.74200  0.82050  0.50000  Biso   1.000  C 
  H346     1.0000 0.72490  0.66950  0.50000  Biso   1.000  H 
  C371     1.0000 0.67950  0.75800  0.50000  Biso   1.000  C 
  C372     1.0000 0.70580  0.85530  0.50000  Biso   1.000  C 
  H347     1.0000 0.77510  0.83050  0.50000  Biso   1.000  H 
  C373     1.0000 0.64470  0.79420  0.50000  Biso   1.000  C 
  H348     1.0000 0.66950  0.72490  0.50000  Biso   1.000  H 
  C374     1.0000 0.65650  0.84350  0.50000  Biso   1.000  C 
  C375     1.0000 0.61720  0.88280  0.50000  Biso   1.000  C 
  O130     1.0000 0.72218  0.90792  0.49840  Biso   1.000  O 
  H349     1.0000 0.61140  0.78510  0.50000  Biso   1.000  H 
  O131     1.0000 0.63260  0.92810  0.50000  Biso   1.000  O 
  O132     1.0000 0.57190  0.86740  0.50000  Biso   1.000  O 
  C376     1.0000 0.74039  0.92058  0.44963  Biso   1.000  C 
  C377     1.0000 0.78645  0.95827  0.45279  Biso   1.000  C 
  H350     1.0000 0.70869  0.93559  0.42952  Biso   1.000  H 
  H351     1.0000 0.75317  0.88800  0.42883  Biso   1.000  H 
  H352     1.0000 0.76876  0.99563  0.45135  Biso   1.000  H 
  C378     1.0000 0.82381  0.95819  0.40777  Biso   1.000  C 
  H353     1.0000 0.80609  0.95503  0.48950  Biso   1.000  H 
  H354     1.0000 0.80751  0.94919  0.37197  Biso   1.000  H 
  H355     1.0000 0.85181  0.92911  0.41575  Biso   1.000  H 
  C379     1.0000 0.85530  0.00629  0.40731  Biso   1.000  C 
  H356     1.0000 0.83261  0.04112  0.40519  Biso   1.000  H 
  C380     1.0000 0.89210  0.00502  0.36184  Biso   1.000  C 
  H357     1.0000 0.87804  0.00635  0.44261  Biso   1.000  H 
  H358     1.0000 0.92834  0.98934  0.37539  Biso   1.000  H 
  H359     1.0000 0.90175  0.04386  0.34619  Biso   1.000  H 
  H360     1.0000 0.87989  0.97991  0.33091  Biso   1.000  H 
  O133     1.0000 0.50000  0.07190  0.63260  Biso   1.000  O 
  C381     1.0000 0.50000  0.11720  0.61720  Biso   1.000  C 
  O134     1.0000 0.50000  0.13260  0.57190  Biso   1.000  O 
  C382     1.0000 0.50000  0.15650  0.65650  Biso   1.000  C 
  C383     1.0000 0.50000  0.14470  0.70580  Biso   1.000  C 
  C384     1.0000 0.50000  0.20580  0.64470  Biso   1.000  C 
  C385     1.0000 0.50000  0.17950  0.74200  Biso   1.000  C 
  H361     1.0000 0.50000  0.11140  0.71490  Biso   1.000  H 
  C386     1.0000 0.50000  0.24200  0.67950  Biso   1.000  C 
  H362     1.0000 0.50000  0.21490  0.61140  Biso   1.000  H 
  C387     1.0000 0.50000  0.23070  0.73070  Biso   1.000  C 
  C388     1.0000 0.50000  0.26930  0.76930  Biso   1.000  C 
  H363     1.0000 0.50000  0.16950  0.77510  Biso   1.000  H 
  C389     1.0000 0.50000  0.25800  0.82050  Biso   1.000  C 
  H364     1.0000 0.50000  0.27510  0.66950  Biso   1.000  H 
  C390     1.0000 0.50000  0.32050  0.75800  Biso   1.000  C 
  C391     1.0000 0.50000  0.29420  0.85530  Biso   1.000  C 
  H365     1.0000 0.50000  0.22490  0.83050  Biso   1.000  H 
  C392     1.0000 0.50000  0.35530  0.79420  Biso   1.000  C 
  H366     1.0000 0.50000  0.33050  0.72490  Biso   1.000  H 
  C393     1.0000 0.50000  0.34350  0.84350  Biso   1.000  C 
  C394     1.0000 0.50000  0.38280  0.88280  Biso   1.000  C 
  O135     1.0000 0.50194  0.27869  0.90832  Biso   1.000  O 
  H367     1.0000 0.50000  0.38860  0.78510  Biso   1.000  H 
  O136     1.0000 0.50000  0.36740  0.92810  Biso   1.000  O 
  O137     1.0000 0.50000  0.42810  0.86740  Biso   1.000  O 
  C395     1.0000 0.54978  0.25744  0.91903  Biso   1.000  C 
  C396     1.0000 0.55080  0.21070  0.95431  Biso   1.000  C 
  H368     1.0000 0.56917  0.28881  0.93650  Biso   1.000  H 
  H369     1.0000 0.57107  0.24841  0.88472  Biso   1.000  H 
  H370     1.0000 0.56094  0.22489  0.99187  Biso   1.000  H 
  C397     1.0000 0.59346  0.17690  0.93701  Biso   1.000  C 
  H371     1.0000 0.51512  0.19026  0.95874  Biso   1.000  H 
  H372     1.0000 0.62824  0.19739  0.92883  Biso   1.000  H 
  H373     1.0000 0.57934  0.16039  0.90291  Biso   1.000  H 
  C398     1.0000 0.60647  0.13772  0.97564  Biso   1.000  C 
  H374     1.0000 0.61399  0.15565  0.01232  Biso   1.000  H 
  C399     1.0000 0.65023  0.10266  0.96259  Biso   1.000  C 
  H375     1.0000 0.57238  0.11517  0.98088  Biso   1.000  H 
  H376     1.0000 0.67019  0.09599  0.99833  Biso   1.000  H 
  H377     1.0000 0.67762  0.11874  0.93554  Biso   1.000  H 
  H378     1.0000 0.63560  0.06586  0.94956  Biso   1.000  H 
  O138     1.0000 0.50000  0.07190  0.36740  Biso   1.000  O 
  C400     1.0000 0.50000  0.11720  0.38280  Biso   1.000  C 
  O139     1.0000 0.50000  0.13260  0.42810  Biso   1.000  O 
  C401     1.0000 0.50000  0.15650  0.34350  Biso   1.000  C 
  C402     1.0000 0.50000  0.14470  0.29420  Biso   1.000  C 
  C403     1.0000 0.50000  0.20580  0.35530  Biso   1.000  C 
  C404     1.0000 0.50000  0.17950  0.25800  Biso   1.000  C 
  H379     1.0000 0.50000  0.11140  0.28510  Biso   1.000  H 
  C405     1.0000 0.50000  0.24200  0.32050  Biso   1.000  C 
  H380     1.0000 0.50000  0.21490  0.38860  Biso   1.000  H 
  C406     1.0000 0.50000  0.23070  0.26930  Biso   1.000  C 
  C407     1.0000 0.50000  0.26930  0.23070  Biso   1.000  C 
  H381     1.0000 0.50000  0.16950  0.22490  Biso   1.000  H 
  C408     1.0000 0.50000  0.25800  0.17950  Biso   1.000  C 
  H382     1.0000 0.50000  0.27510  0.33050  Biso   1.000  H 
  C409     1.0000 0.50000  0.32050  0.24200  Biso   1.000  C 
  C410     1.0000 0.50000  0.29420  0.14470  Biso   1.000  C 
  H383     1.0000 0.50000  0.22490  0.16950  Biso   1.000  H 
  C411     1.0000 0.50000  0.35530  0.20580  Biso   1.000  C 
  H384     1.0000 0.50000  0.33050  0.27510  Biso   1.000  H 
  C412     1.0000 0.50000  0.34350  0.15650  Biso   1.000  C 
  C413     1.0000 0.50000  0.38280  0.11720  Biso   1.000  C 
  O140     1.0000 0.49806  0.27869  0.09168  Biso   1.000  O 
  H385     1.0000 0.50000  0.38860  0.21490  Biso   1.000  H 
  O141     1.0000 0.50000  0.36740  0.07190  Biso   1.000  O 
  O142     1.0000 0.50000  0.42810  0.13260  Biso   1.000  O 
  C414     1.0000 0.45022  0.25744  0.08097  Biso   1.000  C 
  C415     1.0000 0.44920  0.21070  0.04569  Biso   1.000  C 
  H386     1.0000 0.43083  0.28881  0.06350  Biso   1.000  H 
  H387     1.0000 0.42893  0.24841  0.11528  Biso   1.000  H 
  H388     1.0000 0.43906  0.22489  0.00813  Biso   1.000  H 
  C416     1.0000 0.40655  0.17690  0.06299  Biso   1.000  C 
  H389     1.0000 0.48488  0.19026  0.04126  Biso   1.000  H 
  H390     1.0000 0.37176  0.19739  0.07117  Biso   1.000  H 
  H391     1.0000 0.42066  0.16039  0.09709  Biso   1.000  H 
  C417     1.0000 0.39353  0.13772  0.02436  Biso   1.000  C 
  H392     1.0000 0.38601  0.15565  0.98768  Biso   1.000  H 
  C418     1.0000 0.34977  0.10266  0.03741  Biso   1.000  C 
  H393     1.0000 0.42762  0.11517  0.01911  Biso   1.000  H 
  H394     1.0000 0.32981  0.09599  0.00166  Biso   1.000  H 
  H395     1.0000 0.32238  0.11874  0.06446  Biso   1.000  H 
  H396     1.0000 0.36440  0.06586  0.05044  Biso   1.000  H 
  O143     1.0000 0.50000  0.92810  0.36740  Biso   1.000  O 
  C419     1.0000 0.50000  0.88280  0.38280  Biso   1.000  C 
  O144     1.0000 0.50000  0.86740  0.42810  Biso   1.000  O 
  C420     1.0000 0.50000  0.84350  0.34350  Biso   1.000  C 
  C421     1.0000 0.50000  0.85530  0.29420  Biso   1.000  C 
  C422     1.0000 0.50000  0.79420  0.35530  Biso   1.000  C 
  C423     1.0000 0.50000  0.82050  0.25800  Biso   1.000  C 
  H397     1.0000 0.50000  0.88860  0.28510  Biso   1.000  H 
  C424     1.0000 0.50000  0.75800  0.32050  Biso   1.000  C 
  H398     1.0000 0.50000  0.78510  0.38860  Biso   1.000  H 
  C425     1.0000 0.50000  0.76930  0.26930  Biso   1.000  C 
  C426     1.0000 0.50000  0.73070  0.23070  Biso   1.000  C 
  H399     1.0000 0.50000  0.83050  0.22490  Biso   1.000  H 
  C427     1.0000 0.50000  0.74200  0.17950  Biso   1.000  C 
  H400     1.0000 0.50000  0.72490  0.33050  Biso   1.000  H 
  C428     1.0000 0.50000  0.67950  0.24200  Biso   1.000  C 
  C429     1.0000 0.50000  0.70580  0.14470  Biso   1.000  C 
  H401     1.0000 0.50000  0.77510  0.16950  Biso   1.000  H 
  C430     1.0000 0.50000  0.64470  0.20580  Biso   1.000  C 
  H402     1.0000 0.50000  0.66950  0.27510  Biso   1.000  H 
  C431     1.0000 0.50000  0.65650  0.15650  Biso   1.000  C 
  C432     1.0000 0.50000  0.61720  0.11720  Biso   1.000  C 
  O145     1.0000 0.50194  0.72130  0.09168  Biso   1.000  O 
  H403     1.0000 0.50000  0.61140  0.21490  Biso   1.000  H 
  O146     1.0000 0.50000  0.63260  0.07190  Biso   1.000  O 
  O147     1.0000 0.50000  0.57190  0.13260  Biso   1.000  O 
  C433     1.0000 0.54978  0.74256  0.08097  Biso   1.000  C 
  C434     1.0000 0.55080  0.78930  0.04569  Biso   1.000  C 
  H404     1.0000 0.56917  0.71119  0.06350  Biso   1.000  H 
  H405     1.0000 0.57107  0.75159  0.11528  Biso   1.000  H 
  H406     1.0000 0.56094  0.77511  0.00813  Biso   1.000  H 
  C435     1.0000 0.59346  0.82310  0.06299  Biso   1.000  C 
  H407     1.0000 0.51512  0.80973  0.04126  Biso   1.000  H 
  H408     1.0000 0.62824  0.80261  0.07116  Biso   1.000  H 
  H409     1.0000 0.57934  0.83960  0.09709  Biso   1.000  H 
  C436     1.0000 0.60646  0.86228  0.02436  Biso   1.000  C 
  H410     1.0000 0.61398  0.84435  0.98767  Biso   1.000  H 
  C437     1.0000 0.65023  0.89734  0.03742  Biso   1.000  C 
  H411     1.0000 0.57237  0.88483  0.01913  Biso   1.000  H 
  H412     1.0000 0.67019  0.90400  0.00166  Biso   1.000  H 
  H413     1.0000 0.67762  0.88126  0.06446  Biso   1.000  H 
  H414     1.0000 0.63560  0.93414  0.05044  Biso   1.000  H 
  O148     1.0000 0.50000  0.92810  0.63260  Biso   1.000  O 
  C438     1.0000 0.50000  0.88280  0.61720  Biso   1.000  C 
  O149     1.0000 0.50000  0.86740  0.57190  Biso   1.000  O 
  C439     1.0000 0.50000  0.84350  0.65650  Biso   1.000  C 
  C440     1.0000 0.50000  0.85530  0.70580  Biso   1.000  C 
  C441     1.0000 0.50000  0.79420  0.64470  Biso   1.000  C 
  C442     1.0000 0.50000  0.82050  0.74200  Biso   1.000  C 
  H415     1.0000 0.50000  0.88860  0.71490  Biso   1.000  H 
  C443     1.0000 0.50000  0.75800  0.67950  Biso   1.000  C 
  H416     1.0000 0.50000  0.78510  0.61140  Biso   1.000  H 
  C444     1.0000 0.50000  0.76930  0.73070  Biso   1.000  C 
  C445     1.0000 0.50000  0.73070  0.76930  Biso   1.000  C 
  H417     1.0000 0.50000  0.83050  0.77510  Biso   1.000  H 
  C446     1.0000 0.50000  0.74200  0.82050  Biso   1.000  C 
  H418     1.0000 0.50000  0.72490  0.66950  Biso   1.000  H 
  C447     1.0000 0.50000  0.67950  0.75800  Biso   1.000  C 
  C448     1.0000 0.50000  0.70580  0.85530  Biso   1.000  C 
  H419     1.0000 0.50000  0.77510  0.83050  Biso   1.000  H 
  C449     1.0000 0.50000  0.64470  0.79420  Biso   1.000  C 
  H420     1.0000 0.50000  0.66950  0.72490  Biso   1.000  H 
  C450     1.0000 0.50000  0.65650  0.84350  Biso   1.000  C 
  C451     1.0000 0.50000  0.61720  0.88280  Biso   1.000  C 
  O150     1.0000 0.49806  0.72130  0.90832  Biso   1.000  O 
  H421     1.0000 0.50000  0.61140  0.78510  Biso   1.000  H 
  O151     1.0000 0.50000  0.63260  0.92810  Biso   1.000  O 
  O152     1.0000 0.50000  0.57190  0.86740  Biso   1.000  O 
  C452     1.0000 0.45022  0.74256  0.91903  Biso   1.000  C 
  C453     1.0000 0.44920  0.78930  0.95431  Biso   1.000  C 
  H422     1.0000 0.43083  0.71119  0.93650  Biso   1.000  H 
  H423     1.0000 0.42893  0.75159  0.88472  Biso   1.000  H 
  H424     1.0000 0.43906  0.77511  0.99187  Biso   1.000  H 
  C454     1.0000 0.40654  0.82310  0.93701  Biso   1.000  C 
  H425     1.0000 0.48488  0.80973  0.95874  Biso   1.000  H 
  H426     1.0000 0.37176  0.80261  0.92883  Biso   1.000  H 
  H427     1.0000 0.42066  0.83960  0.90291  Biso   1.000  H 
  C455     1.0000 0.39354  0.86228  0.97564  Biso   1.000  C 
  H428     1.0000 0.38602  0.84435  0.01232  Biso   1.000  H 
  C456     1.0000 0.34977  0.89734  0.96259  Biso   1.000  C 
  H429     1.0000 0.42763  0.88483  0.98087  Biso   1.000  H 
  H430     1.0000 0.32981  0.90401  0.99833  Biso   1.000  H 
  H431     1.0000 0.32238  0.88126  0.93554  Biso   1.000  H 
  H432     1.0000 0.36440  0.93414  0.94956  Biso   1.000  H 
