data_image0
_cell_length_a       26.896
_cell_length_b       26.896
_cell_length_c       26.896
_cell_angle_alpha    90
_cell_angle_beta     90
_cell_angle_gamma    90

_symmetry_space_group_name_H-M    "P 1"
_symmetry_int_tables_number       1

loop_
  _symmetry_equiv_pos_as_xyz
  'x, y, z'

loop_
  _atom_site_label
  _atom_site_occupancy
  _atom_site_fract_x
  _atom_site_fract_y
  _atom_site_fract_z
  _atom_site_thermal_displace_type
  _atom_site_B_iso_or_equiv
  _atom_site_type_symbol
  Zr1      1.0000 0.09204  0.00000  0.00000  Biso   1.000  Zr
  Zr2      1.0000 0.90796  0.00000  0.00000  Biso   1.000  Zr
  Zr3      1.0000 0.00000  0.09204  0.00000  Biso   1.000  Zr
  Zr4      1.0000 0.00000  0.90796  0.00000  Biso   1.000  Zr
  Zr5      1.0000 0.00000  0.00000  0.09204  Biso   1.000  Zr
  Zr6      1.0000 0.00000  0.00000  0.90796  Biso   1.000  Zr
  Zr7      1.0000 0.09204  0.50000  0.50000  Biso   1.000  Zr
  Zr8      1.0000 0.90796  0.50000  0.50000  Biso   1.000  Zr
  Zr9      1.0000 0.00000  0.59204  0.50000  Biso   1.000  Zr
  Zr10     1.0000 0.00000  0.40796  0.50000  Biso   1.000  Zr
  Zr11     1.0000 0.00000  0.50000  0.59204  Biso   1.000  Zr
  Zr12     1.0000 0.00000  0.50000  0.40796  Biso   1.000  Zr
  Zr13     1.0000 0.59204  0.00000  0.50000  Biso   1.000  Zr
  Zr14     1.0000 0.40796  0.00000  0.50000  Biso   1.000  Zr
  Zr15     1.0000 0.50000  0.09204  0.50000  Biso   1.000  Zr
  Zr16     1.0000 0.50000  0.90796  0.50000  Biso   1.000  Zr
  Zr17     1.0000 0.50000  0.00000  0.59204  Biso   1.000  Zr
  Zr18     1.0000 0.50000  0.00000  0.40796  Biso   1.000  Zr
  Zr19     1.0000 0.59204  0.50000  0.00000  Biso   1.000  Zr
  Zr20     1.0000 0.40796  0.50000  0.00000  Biso   1.000  Zr
  Zr21     1.0000 0.50000  0.59204  0.00000  Biso   1.000  Zr
  Zr22     1.0000 0.50000  0.40796  0.00000  Biso   1.000  Zr
  Zr23     1.0000 0.50000  0.50000  0.09204  Biso   1.000  Zr
  Zr24     1.0000 0.50000  0.50000  0.90796  Biso   1.000  Zr
  O1       1.0000 0.04540  0.04540  0.04540  Biso   1.000  O 
  O2       1.0000 0.95460  0.95460  0.04540  Biso   1.000  O 
  O3       1.0000 0.95460  0.04540  0.95460  Biso   1.000  O 
  O4       1.0000 0.04540  0.95460  0.95460  Biso   1.000  O 
  O5       1.0000 0.04540  0.04540  0.95460  Biso   1.000  O 
  O6       1.0000 0.95460  0.95460  0.95460  Biso   1.000  O 
  O7       1.0000 0.04540  0.95460  0.04540  Biso   1.000  O 
  O8       1.0000 0.95460  0.04540  0.04540  Biso   1.000  O 
  O9       1.0000 0.04540  0.54540  0.54540  Biso   1.000  O 
  O10      1.0000 0.95460  0.45460  0.54540  Biso   1.000  O 
  O11      1.0000 0.95460  0.54540  0.45460  Biso   1.000  O 
  O12      1.0000 0.04540  0.45460  0.45460  Biso   1.000  O 
  O13      1.0000 0.04540  0.54540  0.45460  Biso   1.000  O 
  O14      1.0000 0.95460  0.45460  0.45460  Biso   1.000  O 
  O15      1.0000 0.04540  0.45460  0.54540  Biso   1.000  O 
  O16      1.0000 0.95460  0.54540  0.54540  Biso   1.000  O 
  O17      1.0000 0.54540  0.04540  0.54540  Biso   1.000  O 
  O18      1.0000 0.45460  0.95460  0.54540  Biso   1.000  O 
  O19      1.0000 0.45460  0.04540  0.45460  Biso   1.000  O 
  O20      1.0000 0.54540  0.95460  0.45460  Biso   1.000  O 
  O21      1.0000 0.54540  0.04540  0.45460  Biso   1.000  O 
  O22      1.0000 0.45460  0.95460  0.45460  Biso   1.000  O 
  O23      1.0000 0.54540  0.95460  0.54540  Biso   1.000  O 
  O24      1.0000 0.45460  0.04540  0.54540  Biso   1.000  O 
  O25      1.0000 0.54540  0.54540  0.04540  Biso   1.000  O 
  O26      1.0000 0.45460  0.45460  0.04540  Biso   1.000  O 
  O27      1.0000 0.45460  0.54540  0.95460  Biso   1.000  O 
  O28      1.0000 0.54540  0.45460  0.95460  Biso   1.000  O 
  O29      1.0000 0.54540  0.54540  0.95460  Biso   1.000  O 
  O30      1.0000 0.45460  0.45460  0.95460  Biso   1.000  O 
  O31      1.0000 0.54540  0.45460  0.04540  Biso   1.000  O 
  O32      1.0000 0.45460  0.54540  0.04540  Biso   1.000  O 
  O33      1.0000 0.13260  0.00000  0.07190  Biso   1.000  O 
  C1       1.0000 0.11720  0.00000  0.11720  Biso   1.000  C 
  O34      1.0000 0.07190  0.00000  0.13260  Biso   1.000  O 
  C2       1.0000 0.15650  0.00000  0.15650  Biso   1.000  C 
  C3       1.0000 0.20580  0.00000  0.14470  Biso   1.000  C 
  C4       1.0000 0.14470  0.00000  0.20580  Biso   1.000  C 
  C5       1.0000 0.24200  0.00000  0.17950  Biso   1.000  C 
  H1       1.0000 0.21490  0.00000  0.11140  Biso   1.000  H 
  C6       1.0000 0.17950  0.00000  0.24200  Biso   1.000  C 
  H2       1.0000 0.11140  0.00000  0.21490  Biso   1.000  H 
  C7       1.0000 0.23070  0.00000  0.23070  Biso   1.000  C 
  C8       1.0000 0.26930  0.00000  0.26930  Biso   1.000  C 
  H3       1.0000 0.27510  0.00000  0.16950  Biso   1.000  H 
  C9       1.0000 0.32050  0.00000  0.25800  Biso   1.000  C 
  H4       1.0000 0.16950  0.00000  0.27510  Biso   1.000  H 
  C10      1.0000 0.25800  0.00000  0.32050  Biso   1.000  C 
  C11      1.0000 0.35530  0.00000  0.29420  Biso   1.000  C 
  N1       1.0000 0.33939  0.01846  0.20639  Biso   1.000  N 
  C12      1.0000 0.29420  0.00000  0.35530  Biso   1.000  C 
  H5       1.0000 0.22490  0.00000  0.33050  Biso   1.000  H 
  C13      1.0000 0.34350  0.00000  0.34350  Biso   1.000  C 
  C14      1.0000 0.38280  0.00000  0.38280  Biso   1.000  C 
  H6       1.0000 0.38860  0.00000  0.28510  Biso   1.000  H 
  H7       1.0000 0.28510  0.00000  0.38860  Biso   1.000  H 
  O35      1.0000 0.42810  0.00000  0.36740  Biso   1.000  O 
  O36      1.0000 0.36740  0.00000  0.42810  Biso   1.000  O 
  H8       1.0000 0.35513  0.05454  0.21115  Biso   1.000  H 
  C15      1.0000 0.37098  0.98576  0.17431  Biso   1.000  C 
  C16      1.0000 0.36918  0.92790  0.18300  Biso   1.000  C 
  H9       1.0000 0.33308  0.91641  0.19918  Biso   1.000  H 
  C17      1.0000 0.41325  0.91631  0.21674  Biso   1.000  C 
  H10      1.0000 0.37509  0.90663  0.14722  Biso   1.000  H 
  C18      1.0000 0.45012  0.95805  0.20770  Biso   1.000  C 
  H11      1.0000 0.42876  0.87829  0.21479  Biso   1.000  H 
  H12      1.0000 0.40028  0.92063  0.25562  Biso   1.000  H 
  C19      1.0000 0.42511  0.99840  0.17801  Biso   1.000  C 
  H13      1.0000 0.48226  0.94574  0.18543  Biso   1.000  H 
  H14      1.0000 0.46352  0.97404  0.24401  Biso   1.000  H 
  H15      1.0000 0.44174  0.99707  0.13984  Biso   1.000  H 
  H16      1.0000 0.43380  0.03437  0.19376  Biso   1.000  H 
  H17      1.0000 0.36120  0.99730  0.13505  Biso   1.000  H 
  O37      1.0000 0.86740  0.00000  0.07190  Biso   1.000  O 
  C20      1.0000 0.88280  0.00000  0.11720  Biso   1.000  C 
  O38      1.0000 0.92810  0.00000  0.13260  Biso   1.000  O 
  C21      1.0000 0.84350  0.00000  0.15650  Biso   1.000  C 
  C22      1.0000 0.79420  0.00000  0.14470  Biso   1.000  C 
  C23      1.0000 0.85530  0.00000  0.20580  Biso   1.000  C 
  C24      1.0000 0.75800  0.00000  0.17950  Biso   1.000  C 
  H18      1.0000 0.78510  0.00000  0.11140  Biso   1.000  H 
  C25      1.0000 0.82050  0.00000  0.24200  Biso   1.000  C 
  H19      1.0000 0.88860  0.00000  0.21490  Biso   1.000  H 
  C26      1.0000 0.76930  0.00000  0.23070  Biso   1.000  C 
  C27      1.0000 0.73070  0.00000  0.26930  Biso   1.000  C 
  H20      1.0000 0.72490  0.00000  0.16950  Biso   1.000  H 
  C28      1.0000 0.67950  0.00000  0.25800  Biso   1.000  C 
  H21      1.0000 0.83050  0.00000  0.27510  Biso   1.000  H 
  C29      1.0000 0.74200  0.00000  0.32050  Biso   1.000  C 
  C30      1.0000 0.64470  0.00000  0.29420  Biso   1.000  C 
  N2       1.0000 0.66061  0.98154  0.20639  Biso   1.000  N 
  C31      1.0000 0.70580  0.00000  0.35530  Biso   1.000  C 
  H22      1.0000 0.77510  0.00000  0.33050  Biso   1.000  H 
  C32      1.0000 0.65650  0.00000  0.34350  Biso   1.000  C 
  C33      1.0000 0.61720  0.00000  0.38280  Biso   1.000  C 
  H23      1.0000 0.61140  0.00000  0.28510  Biso   1.000  H 
  H24      1.0000 0.71490  0.00000  0.38860  Biso   1.000  H 
  O39      1.0000 0.57190  0.00000  0.36740  Biso   1.000  O 
  O40      1.0000 0.63260  0.00000  0.42810  Biso   1.000  O 
  H25      1.0000 0.64487  0.94546  0.21115  Biso   1.000  H 
  C34      1.0000 0.62902  0.01424  0.17431  Biso   1.000  C 
  C35      1.0000 0.63082  0.07209  0.18300  Biso   1.000  C 
  H26      1.0000 0.66692  0.08359  0.19918  Biso   1.000  H 
  C36      1.0000 0.58675  0.08369  0.21674  Biso   1.000  C 
  H27      1.0000 0.62491  0.09337  0.14722  Biso   1.000  H 
  C37      1.0000 0.54988  0.04195  0.20770  Biso   1.000  C 
  H28      1.0000 0.57124  0.12171  0.21479  Biso   1.000  H 
  H29      1.0000 0.59972  0.07937  0.25562  Biso   1.000  H 
  C38      1.0000 0.57489  0.00160  0.17801  Biso   1.000  C 
  H30      1.0000 0.51774  0.05426  0.18543  Biso   1.000  H 
  H31      1.0000 0.53648  0.02596  0.24401  Biso   1.000  H 
  H32      1.0000 0.55826  0.00293  0.13984  Biso   1.000  H 
  H33      1.0000 0.56620  0.96563  0.19376  Biso   1.000  H 
  H34      1.0000 0.63880  0.00270  0.13505  Biso   1.000  H 
  O41      1.0000 0.86740  0.00000  0.92810  Biso   1.000  O 
  C39      1.0000 0.88280  0.00000  0.88280  Biso   1.000  C 
  O42      1.0000 0.92810  0.00000  0.86740  Biso   1.000  O 
  C40      1.0000 0.84350  0.00000  0.84350  Biso   1.000  C 
  C41      1.0000 0.79420  0.00000  0.85530  Biso   1.000  C 
  C42      1.0000 0.85530  0.00000  0.79420  Biso   1.000  C 
  C43      1.0000 0.75800  0.00000  0.82050  Biso   1.000  C 
  H35      1.0000 0.78510  0.00000  0.88860  Biso   1.000  H 
  C44      1.0000 0.82050  0.00000  0.75800  Biso   1.000  C 
  H36      1.0000 0.88860  0.00000  0.78510  Biso   1.000  H 
  C45      1.0000 0.76930  0.00000  0.76930  Biso   1.000  C 
  C46      1.0000 0.73070  0.00000  0.73070  Biso   1.000  C 
  H37      1.0000 0.72490  0.00000  0.83050  Biso   1.000  H 
  C47      1.0000 0.67950  0.00000  0.74200  Biso   1.000  C 
  H38      1.0000 0.83050  0.00000  0.72490  Biso   1.000  H 
  C48      1.0000 0.74200  0.00000  0.67950  Biso   1.000  C 
  C49      1.0000 0.64470  0.00000  0.70580  Biso   1.000  C 
  N3       1.0000 0.66061  0.01846  0.79361  Biso   1.000  N 
  C50      1.0000 0.70580  0.00000  0.64470  Biso   1.000  C 
  H39      1.0000 0.77510  0.00000  0.66950  Biso   1.000  H 
  C51      1.0000 0.65650  0.00000  0.65650  Biso   1.000  C 
  C52      1.0000 0.61720  0.00000  0.61720  Biso   1.000  C 
  H40      1.0000 0.61140  0.00000  0.71490  Biso   1.000  H 
  H41      1.0000 0.71490  0.00000  0.61140  Biso   1.000  H 
  O43      1.0000 0.57190  0.00000  0.63260  Biso   1.000  O 
  O44      1.0000 0.63260  0.00000  0.57190  Biso   1.000  O 
  H42      1.0000 0.64487  0.05454  0.78885  Biso   1.000  H 
  C53      1.0000 0.62902  0.98576  0.82569  Biso   1.000  C 
  C54      1.0000 0.63082  0.92790  0.81700  Biso   1.000  C 
  H43      1.0000 0.66692  0.91641  0.80082  Biso   1.000  H 
  C55      1.0000 0.58675  0.91631  0.78326  Biso   1.000  C 
  H44      1.0000 0.62491  0.90663  0.85277  Biso   1.000  H 
  C56      1.0000 0.54988  0.95805  0.79230  Biso   1.000  C 
  H45      1.0000 0.57124  0.87829  0.78521  Biso   1.000  H 
  H46      1.0000 0.59972  0.92063  0.74437  Biso   1.000  H 
  C57      1.0000 0.57489  0.99840  0.82199  Biso   1.000  C 
  H47      1.0000 0.51774  0.94574  0.81457  Biso   1.000  H 
  H48      1.0000 0.53648  0.97404  0.75599  Biso   1.000  H 
  H49      1.0000 0.55826  0.99707  0.86016  Biso   1.000  H 
  H50      1.0000 0.56620  0.03437  0.80624  Biso   1.000  H 
  H51      1.0000 0.63880  0.99730  0.86495  Biso   1.000  H 
  O45      1.0000 0.13260  0.00000  0.92810  Biso   1.000  O 
  C58      1.0000 0.11720  0.00000  0.88280  Biso   1.000  C 
  O46      1.0000 0.07190  0.00000  0.86740  Biso   1.000  O 
  C59      1.0000 0.15650  0.00000  0.84350  Biso   1.000  C 
  C60      1.0000 0.20580  0.00000  0.85530  Biso   1.000  C 
  C61      1.0000 0.14470  0.00000  0.79420  Biso   1.000  C 
  C62      1.0000 0.24200  0.00000  0.82050  Biso   1.000  C 
  H52      1.0000 0.21490  0.00000  0.88860  Biso   1.000  H 
  C63      1.0000 0.17950  0.00000  0.75800  Biso   1.000  C 
  H53      1.0000 0.11140  0.00000  0.78510  Biso   1.000  H 
  C64      1.0000 0.23070  0.00000  0.76930  Biso   1.000  C 
  C65      1.0000 0.26930  0.00000  0.73070  Biso   1.000  C 
  H54      1.0000 0.27510  0.00000  0.83050  Biso   1.000  H 
  C66      1.0000 0.32050  0.00000  0.74200  Biso   1.000  C 
  H55      1.0000 0.16950  0.00000  0.72490  Biso   1.000  H 
  C67      1.0000 0.25800  0.00000  0.67950  Biso   1.000  C 
  C68      1.0000 0.35530  0.00000  0.70580  Biso   1.000  C 
  N4       1.0000 0.33939  0.98154  0.79361  Biso   1.000  N 
  C69      1.0000 0.29420  0.00000  0.64470  Biso   1.000  C 
  H56      1.0000 0.22490  0.00000  0.66950  Biso   1.000  H 
  C70      1.0000 0.34350  0.00000  0.65650  Biso   1.000  C 
  C71      1.0000 0.38280  0.00000  0.61720  Biso   1.000  C 
  H57      1.0000 0.38860  0.00000  0.71490  Biso   1.000  H 
  H58      1.0000 0.28510  0.00000  0.61140  Biso   1.000  H 
  O47      1.0000 0.42810  0.00000  0.63260  Biso   1.000  O 
  O48      1.0000 0.36740  0.00000  0.57190  Biso   1.000  O 
  H59      1.0000 0.35513  0.94546  0.78885  Biso   1.000  H 
  C72      1.0000 0.37098  0.01424  0.82569  Biso   1.000  C 
  C73      1.0000 0.36918  0.07209  0.81700  Biso   1.000  C 
  H60      1.0000 0.33308  0.08359  0.80082  Biso   1.000  H 
  C74      1.0000 0.41325  0.08369  0.78326  Biso   1.000  C 
  H61      1.0000 0.37509  0.09337  0.85277  Biso   1.000  H 
  C75      1.0000 0.45012  0.04195  0.79230  Biso   1.000  C 
  H62      1.0000 0.42876  0.12171  0.78521  Biso   1.000  H 
  H63      1.0000 0.40028  0.07937  0.74437  Biso   1.000  H 
  C76      1.0000 0.42511  0.00160  0.82199  Biso   1.000  C 
  H64      1.0000 0.48226  0.05426  0.81457  Biso   1.000  H 
  H65      1.0000 0.46352  0.02596  0.75599  Biso   1.000  H 
  H66      1.0000 0.44174  0.00293  0.86016  Biso   1.000  H 
  H67      1.0000 0.43380  0.96563  0.80624  Biso   1.000  H 
  H68      1.0000 0.36120  0.00270  0.86495  Biso   1.000  H 
  O49      1.0000 0.07190  0.13260  0.00000  Biso   1.000  O 
  C77      1.0000 0.11720  0.11720  0.00000  Biso   1.000  C 
  O50      1.0000 0.13260  0.07190  0.00000  Biso   1.000  O 
  C78      1.0000 0.15650  0.15650  0.00000  Biso   1.000  C 
  C79      1.0000 0.14470  0.20580  0.00000  Biso   1.000  C 
  C80      1.0000 0.20580  0.14470  0.00000  Biso   1.000  C 
  C81      1.0000 0.17950  0.24200  0.00000  Biso   1.000  C 
  H69      1.0000 0.11140  0.21490  0.00000  Biso   1.000  H 
  C82      1.0000 0.24200  0.17950  0.00000  Biso   1.000  C 
  H70      1.0000 0.21490  0.11140  0.00000  Biso   1.000  H 
  C83      1.0000 0.23070  0.23070  0.00000  Biso   1.000  C 
  C84      1.0000 0.26930  0.26930  0.00000  Biso   1.000  C 
  H71      1.0000 0.16950  0.27510  0.00000  Biso   1.000  H 
  C85      1.0000 0.25800  0.32050  0.00000  Biso   1.000  C 
  H72      1.0000 0.27510  0.16950  0.00000  Biso   1.000  H 
  C86      1.0000 0.32050  0.25800  0.00000  Biso   1.000  C 
  C87      1.0000 0.29420  0.35530  0.00000  Biso   1.000  C 
  N5       1.0000 0.20658  0.34196  0.01507  Biso   1.000  N 
  C88      1.0000 0.35530  0.29420  0.00000  Biso   1.000  C 
  H73      1.0000 0.33050  0.22490  0.00000  Biso   1.000  H 
  C89      1.0000 0.34350  0.34350  0.00000  Biso   1.000  C 
  C90      1.0000 0.38280  0.38280  0.00000  Biso   1.000  C 
  H74      1.0000 0.28510  0.38860  0.00000  Biso   1.000  H 
  H75      1.0000 0.38860  0.28510  0.00000  Biso   1.000  H 
  O51      1.0000 0.36740  0.42810  0.00000  Biso   1.000  O 
  O52      1.0000 0.42810  0.36740  0.00000  Biso   1.000  O 
  H76      1.0000 0.20662  0.35720  0.05093  Biso   1.000  H 
  C91      1.0000 0.16954  0.36701  0.98131  Biso   1.000  C 
  C92      1.0000 0.17707  0.35655  0.92554  Biso   1.000  C 
  H77      1.0000 0.20196  0.32437  0.91777  Biso   1.000  H 
  C93      1.0000 0.20028  0.40380  0.90481  Biso   1.000  C 
  H78      1.0000 0.14009  0.34922  0.90806  Biso   1.000  H 
  C94      1.0000 0.19055  0.44784  0.94049  Biso   1.000  C 
  H79      1.0000 0.18695  0.41320  0.86713  Biso   1.000  H 
  H80      1.0000 0.24100  0.39678  0.90300  Biso   1.000  H 
  C95      1.0000 0.16734  0.42465  0.98756  Biso   1.000  C 
  H81      1.0000 0.16562  0.47553  0.92333  Biso   1.000  H 
  H82      1.0000 0.22757  0.46458  0.95019  Biso   1.000  H 
  H83      1.0000 0.12854  0.43778  0.99124  Biso   1.000  H 
  H84      1.0000 0.18921  0.43648  0.02075  Biso   1.000  H 
  H85      1.0000 0.13217  0.35253  0.99269  Biso   1.000  H 
  O53      1.0000 0.07190  0.86740  0.00000  Biso   1.000  O 
  C96      1.0000 0.11720  0.88280  0.00000  Biso   1.000  C 
  O54      1.0000 0.13260  0.92810  0.00000  Biso   1.000  O 
  C97      1.0000 0.15650  0.84350  0.00000  Biso   1.000  C 
  C98      1.0000 0.14470  0.79420  0.00000  Biso   1.000  C 
  C99      1.0000 0.20580  0.85530  0.00000  Biso   1.000  C 
  C100     1.0000 0.17950  0.75800  0.00000  Biso   1.000  C 
  H86      1.0000 0.11140  0.78510  0.00000  Biso   1.000  H 
  C101     1.0000 0.24200  0.82050  0.00000  Biso   1.000  C 
  H87      1.0000 0.21490  0.88860  0.00000  Biso   1.000  H 
  C102     1.0000 0.23070  0.76930  0.00000  Biso   1.000  C 
  C103     1.0000 0.26930  0.73070  0.00000  Biso   1.000  C 
  H88      1.0000 0.16950  0.72490  0.00000  Biso   1.000  H 
  C104     1.0000 0.25800  0.67950  0.00000  Biso   1.000  C 
  H89      1.0000 0.27510  0.83050  0.00000  Biso   1.000  H 
  C105     1.0000 0.32050  0.74200  0.00000  Biso   1.000  C 
  C106     1.0000 0.29420  0.64470  0.00000  Biso   1.000  C 
  N6       1.0000 0.20658  0.65804  0.98493  Biso   1.000  N 
  C107     1.0000 0.35530  0.70580  0.00000  Biso   1.000  C 
  H90      1.0000 0.33050  0.77510  0.00000  Biso   1.000  H 
  C108     1.0000 0.34350  0.65650  0.00000  Biso   1.000  C 
  C109     1.0000 0.38280  0.61720  0.00000  Biso   1.000  C 
  H91      1.0000 0.28510  0.61140  0.00000  Biso   1.000  H 
  H92      1.0000 0.38860  0.71490  0.00000  Biso   1.000  H 
  O55      1.0000 0.36740  0.57190  0.00000  Biso   1.000  O 
  O56      1.0000 0.42810  0.63260  0.00000  Biso   1.000  O 
  H93      1.0000 0.20662  0.64280  0.94907  Biso   1.000  H 
  C110     1.0000 0.16954  0.63299  0.01869  Biso   1.000  C 
  C111     1.0000 0.17707  0.64345  0.07446  Biso   1.000  C 
  H94      1.0000 0.20196  0.67562  0.08223  Biso   1.000  H 
  C112     1.0000 0.20028  0.59620  0.09519  Biso   1.000  C 
  H95      1.0000 0.14009  0.65078  0.09193  Biso   1.000  H 
  C113     1.0000 0.19055  0.55216  0.05952  Biso   1.000  C 
  H96      1.0000 0.18695  0.58680  0.13287  Biso   1.000  H 
  H97      1.0000 0.24100  0.60322  0.09700  Biso   1.000  H 
  C114     1.0000 0.16734  0.57535  0.01244  Biso   1.000  C 
  H98      1.0000 0.16562  0.52447  0.07666  Biso   1.000  H 
  H99      1.0000 0.22757  0.53542  0.04981  Biso   1.000  H 
  H100     1.0000 0.12854  0.56222  0.00876  Biso   1.000  H 
  H101     1.0000 0.18921  0.56352  0.97925  Biso   1.000  H 
  H102     1.0000 0.13217  0.64747  0.00731  Biso   1.000  H 
  O57      1.0000 0.92810  0.86740  0.00000  Biso   1.000  O 
  C115     1.0000 0.88280  0.88280  0.00000  Biso   1.000  C 
  O58      1.0000 0.86740  0.92810  0.00000  Biso   1.000  O 
  C116     1.0000 0.84350  0.84350  0.00000  Biso   1.000  C 
  C117     1.0000 0.85530  0.79420  0.00000  Biso   1.000  C 
  C118     1.0000 0.79420  0.85530  0.00000  Biso   1.000  C 
  C119     1.0000 0.82050  0.75800  0.00000  Biso   1.000  C 
  H103     1.0000 0.88860  0.78510  0.00000  Biso   1.000  H 
  C120     1.0000 0.75800  0.82050  0.00000  Biso   1.000  C 
  H104     1.0000 0.78510  0.88860  0.00000  Biso   1.000  H 
  C121     1.0000 0.76930  0.76930  0.00000  Biso   1.000  C 
  C122     1.0000 0.73070  0.73070  0.00000  Biso   1.000  C 
  H105     1.0000 0.83050  0.72490  0.00000  Biso   1.000  H 
  C123     1.0000 0.74200  0.67950  0.00000  Biso   1.000  C 
  H106     1.0000 0.72490  0.83050  0.00000  Biso   1.000  H 
  C124     1.0000 0.67950  0.74200  0.00000  Biso   1.000  C 
  C125     1.0000 0.70580  0.64470  0.00000  Biso   1.000  C 
  N7       1.0000 0.79342  0.65804  0.01507  Biso   1.000  N 
  C126     1.0000 0.64470  0.70580  0.00000  Biso   1.000  C 
  H107     1.0000 0.66950  0.77510  0.00000  Biso   1.000  H 
  C127     1.0000 0.65650  0.65650  0.00000  Biso   1.000  C 
  C128     1.0000 0.61720  0.61720  0.00000  Biso   1.000  C 
  H108     1.0000 0.71490  0.61140  0.00000  Biso   1.000  H 
  H109     1.0000 0.61140  0.71490  0.00000  Biso   1.000  H 
  O59      1.0000 0.63260  0.57190  0.00000  Biso   1.000  O 
  O60      1.0000 0.57190  0.63260  0.00000  Biso   1.000  O 
  H110     1.0000 0.79338  0.64280  0.05093  Biso   1.000  H 
  C129     1.0000 0.83046  0.63299  0.98131  Biso   1.000  C 
  C130     1.0000 0.82293  0.64345  0.92554  Biso   1.000  C 
  H111     1.0000 0.79804  0.67562  0.91777  Biso   1.000  H 
  C131     1.0000 0.79972  0.59620  0.90481  Biso   1.000  C 
  H112     1.0000 0.85991  0.65078  0.90806  Biso   1.000  H 
  C132     1.0000 0.80945  0.55216  0.94049  Biso   1.000  C 
  H113     1.0000 0.81305  0.58680  0.86713  Biso   1.000  H 
  H114     1.0000 0.75900  0.60322  0.90300  Biso   1.000  H 
  C133     1.0000 0.83266  0.57535  0.98756  Biso   1.000  C 
  H115     1.0000 0.83438  0.52447  0.92333  Biso   1.000  H 
  H116     1.0000 0.77243  0.53542  0.95019  Biso   1.000  H 
  H117     1.0000 0.87146  0.56222  0.99124  Biso   1.000  H 
  H118     1.0000 0.81079  0.56352  0.02075  Biso   1.000  H 
  H119     1.0000 0.86783  0.64747  0.99269  Biso   1.000  H 
  O61      1.0000 0.92810  0.13260  0.00000  Biso   1.000  O 
  C134     1.0000 0.88280  0.11720  0.00000  Biso   1.000  C 
  O62      1.0000 0.86740  0.07190  0.00000  Biso   1.000  O 
  C135     1.0000 0.84350  0.15650  0.00000  Biso   1.000  C 
  C136     1.0000 0.85530  0.20580  0.00000  Biso   1.000  C 
  C137     1.0000 0.79420  0.14470  0.00000  Biso   1.000  C 
  C138     1.0000 0.82050  0.24200  0.00000  Biso   1.000  C 
  H120     1.0000 0.88860  0.21490  0.00000  Biso   1.000  H 
  C139     1.0000 0.75800  0.17950  0.00000  Biso   1.000  C 
  H121     1.0000 0.78510  0.11140  0.00000  Biso   1.000  H 
  C140     1.0000 0.76930  0.23070  0.00000  Biso   1.000  C 
  C141     1.0000 0.73070  0.26930  0.00000  Biso   1.000  C 
  H122     1.0000 0.83050  0.27510  0.00000  Biso   1.000  H 
  C142     1.0000 0.74200  0.32050  0.00000  Biso   1.000  C 
  H123     1.0000 0.72490  0.16950  0.00000  Biso   1.000  H 
  C143     1.0000 0.67950  0.25800  0.00000  Biso   1.000  C 
  C144     1.0000 0.70580  0.35530  0.00000  Biso   1.000  C 
  N8       1.0000 0.79342  0.34196  0.98493  Biso   1.000  N 
  C145     1.0000 0.64470  0.29420  0.00000  Biso   1.000  C 
  H124     1.0000 0.66950  0.22490  0.00000  Biso   1.000  H 
  C146     1.0000 0.65650  0.34350  0.00000  Biso   1.000  C 
  C147     1.0000 0.61720  0.38280  0.00000  Biso   1.000  C 
  H125     1.0000 0.71490  0.38860  0.00000  Biso   1.000  H 
  H126     1.0000 0.61140  0.28510  0.00000  Biso   1.000  H 
  O63      1.0000 0.63260  0.42810  0.00000  Biso   1.000  O 
  O64      1.0000 0.57190  0.36740  0.00000  Biso   1.000  O 
  H127     1.0000 0.79338  0.35720  0.94907  Biso   1.000  H 
  C148     1.0000 0.83046  0.36701  0.01869  Biso   1.000  C 
  C149     1.0000 0.82293  0.35655  0.07446  Biso   1.000  C 
  H128     1.0000 0.79804  0.32437  0.08223  Biso   1.000  H 
  C150     1.0000 0.79972  0.40380  0.09519  Biso   1.000  C 
  H129     1.0000 0.85991  0.34922  0.09193  Biso   1.000  H 
  C151     1.0000 0.80945  0.44784  0.05952  Biso   1.000  C 
  H130     1.0000 0.81305  0.41320  0.13287  Biso   1.000  H 
  H131     1.0000 0.75900  0.39678  0.09700  Biso   1.000  H 
  C152     1.0000 0.83266  0.42465  0.01244  Biso   1.000  C 
  H132     1.0000 0.83438  0.47553  0.07666  Biso   1.000  H 
  H133     1.0000 0.77243  0.46458  0.04981  Biso   1.000  H 
  H134     1.0000 0.87146  0.43778  0.00876  Biso   1.000  H 
  H135     1.0000 0.81079  0.43648  0.97925  Biso   1.000  H 
  H136     1.0000 0.86783  0.35253  0.00731  Biso   1.000  H 
  O65      1.0000 0.00000  0.07190  0.13260  Biso   1.000  O 
  C153     1.0000 0.00000  0.11720  0.11720  Biso   1.000  C 
  O66      1.0000 0.00000  0.13260  0.07190  Biso   1.000  O 
  C154     1.0000 0.00000  0.15650  0.15650  Biso   1.000  C 
  C155     1.0000 0.00000  0.14470  0.20580  Biso   1.000  C 
  C156     1.0000 0.00000  0.20580  0.14470  Biso   1.000  C 
  C157     1.0000 0.00000  0.17950  0.24200  Biso   1.000  C 
  H137     1.0000 0.00000  0.11140  0.21490  Biso   1.000  H 
  C158     1.0000 0.00000  0.24200  0.17950  Biso   1.000  C 
  H138     1.0000 0.00000  0.21490  0.11140  Biso   1.000  H 
  C159     1.0000 0.00000  0.23070  0.23070  Biso   1.000  C 
  C160     1.0000 0.00000  0.26930  0.26930  Biso   1.000  C 
  H139     1.0000 0.00000  0.16950  0.27510  Biso   1.000  H 
  C161     1.0000 0.00000  0.25800  0.32050  Biso   1.000  C 
  H140     1.0000 0.00000  0.27510  0.16950  Biso   1.000  H 
  C162     1.0000 0.00000  0.32050  0.25800  Biso   1.000  C 
  C163     1.0000 0.00000  0.29420  0.35530  Biso   1.000  C 
  N9       1.0000 0.01629  0.20669  0.33920  Biso   1.000  N 
  C164     1.0000 0.00000  0.35530  0.29420  Biso   1.000  C 
  H141     1.0000 0.00000  0.33050  0.22490  Biso   1.000  H 
  C165     1.0000 0.00000  0.34350  0.34350  Biso   1.000  C 
  C166     1.0000 0.00000  0.38280  0.38280  Biso   1.000  C 
  H142     1.0000 0.00000  0.28510  0.38860  Biso   1.000  H 
  H143     1.0000 0.00000  0.38860  0.28510  Biso   1.000  H 
  O67      1.0000 0.00000  0.36740  0.42810  Biso   1.000  O 
  O68      1.0000 0.00000  0.42810  0.36740  Biso   1.000  O 
  H144     1.0000 0.04979  0.21057  0.35819  Biso   1.000  H 
  C167     1.0000 0.97747  0.18053  0.37021  Biso   1.000  C 
  C168     1.0000 0.92231  0.19505  0.36295  Biso   1.000  C 
  H145     1.0000 0.91379  0.21314  0.32706  Biso   1.000  H 
  C169     1.0000 0.90883  0.22614  0.40675  Biso   1.000  C 
  H146     1.0000 0.89900  0.16066  0.36685  Biso   1.000  H 
  C170     1.0000 0.94202  0.20953  0.44883  Biso   1.000  C 
  H147     1.0000 0.86844  0.22191  0.41595  Biso   1.000  H 
  H148     1.0000 0.91581  0.26529  0.39786  Biso   1.000  H 
  C171     1.0000 0.98704  0.18621  0.42561  Biso   1.000  C 
  H149     1.0000 0.92349  0.18382  0.47375  Biso   1.000  H 
  H150     1.0000 0.95222  0.24259  0.47063  Biso   1.000  H 
  H151     1.0000 0.99420  0.15002  0.44318  Biso   1.000  H 
  H152     1.0000 0.01963  0.21116  0.43332  Biso   1.000  H 
  H153     1.0000 0.98017  0.13972  0.36153  Biso   1.000  H 
  O69      1.0000 0.00000  0.07190  0.86740  Biso   1.000  O 
  C172     1.0000 0.00000  0.11720  0.88280  Biso   1.000  C 
  O70      1.0000 0.00000  0.13260  0.92810  Biso   1.000  O 
  C173     1.0000 0.00000  0.15650  0.84350  Biso   1.000  C 
  C174     1.0000 0.00000  0.14470  0.79420  Biso   1.000  C 
  C175     1.0000 0.00000  0.20580  0.85530  Biso   1.000  C 
  C176     1.0000 0.00000  0.17950  0.75800  Biso   1.000  C 
  H154     1.0000 0.00000  0.11140  0.78510  Biso   1.000  H 
  C177     1.0000 0.00000  0.24200  0.82050  Biso   1.000  C 
  H155     1.0000 0.00000  0.21490  0.88860  Biso   1.000  H 
  C178     1.0000 0.00000  0.23070  0.76930  Biso   1.000  C 
  C179     1.0000 0.00000  0.26930  0.73070  Biso   1.000  C 
  H156     1.0000 0.00000  0.16950  0.72490  Biso   1.000  H 
  C180     1.0000 0.00000  0.25800  0.67950  Biso   1.000  C 
  H157     1.0000 0.00000  0.27510  0.83050  Biso   1.000  H 
  C181     1.0000 0.00000  0.32050  0.74200  Biso   1.000  C 
  C182     1.0000 0.00000  0.29420  0.64470  Biso   1.000  C 
  N10      1.0000 0.98371  0.20669  0.66080  Biso   1.000  N 
  C183     1.0000 0.00000  0.35530  0.70580  Biso   1.000  C 
  H158     1.0000 0.00000  0.33050  0.77510  Biso   1.000  H 
  C184     1.0000 0.00000  0.34350  0.65650  Biso   1.000  C 
  C185     1.0000 0.00000  0.38280  0.61720  Biso   1.000  C 
  H159     1.0000 0.00000  0.28510  0.61140  Biso   1.000  H 
  H160     1.0000 0.00000  0.38860  0.71490  Biso   1.000  H 
  O71      1.0000 0.00000  0.36740  0.57190  Biso   1.000  O 
  O72      1.0000 0.00000  0.42810  0.63260  Biso   1.000  O 
  H161     1.0000 0.95022  0.21057  0.64181  Biso   1.000  H 
  C186     1.0000 0.02253  0.18053  0.62979  Biso   1.000  C 
  C187     1.0000 0.07769  0.19505  0.63705  Biso   1.000  C 
  H162     1.0000 0.08621  0.21314  0.67294  Biso   1.000  H 
  C188     1.0000 0.09117  0.22614  0.59325  Biso   1.000  C 
  H163     1.0000 0.10099  0.16066  0.63315  Biso   1.000  H 
  C189     1.0000 0.05798  0.20953  0.55117  Biso   1.000  C 
  H164     1.0000 0.13156  0.22191  0.58405  Biso   1.000  H 
  H165     1.0000 0.08419  0.26529  0.60214  Biso   1.000  H 
  C190     1.0000 0.01296  0.18621  0.57439  Biso   1.000  C 
  H166     1.0000 0.07651  0.18382  0.52625  Biso   1.000  H 
  H167     1.0000 0.04778  0.24259  0.52937  Biso   1.000  H 
  H168     1.0000 0.00580  0.15002  0.55682  Biso   1.000  H 
  H169     1.0000 0.98037  0.21116  0.56668  Biso   1.000  H 
  H170     1.0000 0.01983  0.13972  0.63847  Biso   1.000  H 
  O73      1.0000 0.00000  0.92810  0.86740  Biso   1.000  O 
  C191     1.0000 0.00000  0.88280  0.88280  Biso   1.000  C 
  O74      1.0000 0.00000  0.86740  0.92810  Biso   1.000  O 
  C192     1.0000 0.00000  0.84350  0.84350  Biso   1.000  C 
  C193     1.0000 0.00000  0.85530  0.79420  Biso   1.000  C 
  C194     1.0000 0.00000  0.79420  0.85530  Biso   1.000  C 
  C195     1.0000 0.00000  0.82050  0.75800  Biso   1.000  C 
  H171     1.0000 0.00000  0.88860  0.78510  Biso   1.000  H 
  C196     1.0000 0.00000  0.75800  0.82050  Biso   1.000  C 
  H172     1.0000 0.00000  0.78510  0.88860  Biso   1.000  H 
  C197     1.0000 0.00000  0.76930  0.76930  Biso   1.000  C 
  C198     1.0000 0.00000  0.73070  0.73070  Biso   1.000  C 
  H173     1.0000 0.00000  0.83050  0.72490  Biso   1.000  H 
  C199     1.0000 0.00000  0.74200  0.67950  Biso   1.000  C 
  H174     1.0000 0.00000  0.72490  0.83050  Biso   1.000  H 
  C200     1.0000 0.00000  0.67950  0.74200  Biso   1.000  C 
  C201     1.0000 0.00000  0.70580  0.64470  Biso   1.000  C 
  N11      1.0000 0.01629  0.79331  0.66080  Biso   1.000  N 
  C202     1.0000 0.00000  0.64470  0.70580  Biso   1.000  C 
  H175     1.0000 0.00000  0.66950  0.77510  Biso   1.000  H 
  C203     1.0000 0.00000  0.65650  0.65650  Biso   1.000  C 
  C204     1.0000 0.00000  0.61720  0.61720  Biso   1.000  C 
  H176     1.0000 0.00000  0.71490  0.61140  Biso   1.000  H 
  H177     1.0000 0.00000  0.61140  0.71490  Biso   1.000  H 
  O75      1.0000 0.00000  0.63260  0.57190  Biso   1.000  O 
  O76      1.0000 0.00000  0.57190  0.63260  Biso   1.000  O 
  H178     1.0000 0.04979  0.78943  0.64181  Biso   1.000  H 
  C205     1.0000 0.97747  0.81947  0.62979  Biso   1.000  C 
  C206     1.0000 0.92231  0.80494  0.63705  Biso   1.000  C 
  H179     1.0000 0.91379  0.78686  0.67294  Biso   1.000  H 
  C207     1.0000 0.90883  0.77386  0.59325  Biso   1.000  C 
  H180     1.0000 0.89900  0.83934  0.63315  Biso   1.000  H 
  C208     1.0000 0.94202  0.79047  0.55117  Biso   1.000  C 
  H181     1.0000 0.86844  0.77809  0.58405  Biso   1.000  H 
  H182     1.0000 0.91581  0.73471  0.60214  Biso   1.000  H 
  C209     1.0000 0.98704  0.81379  0.57439  Biso   1.000  C 
  H183     1.0000 0.92349  0.81618  0.52625  Biso   1.000  H 
  H184     1.0000 0.95222  0.75741  0.52937  Biso   1.000  H 
  H185     1.0000 0.99420  0.84999  0.55682  Biso   1.000  H 
  H186     1.0000 0.01963  0.78884  0.56668  Biso   1.000  H 
  H187     1.0000 0.98017  0.86028  0.63847  Biso   1.000  H 
  O77      1.0000 0.00000  0.92810  0.13260  Biso   1.000  O 
  C210     1.0000 0.00000  0.88280  0.11720  Biso   1.000  C 
  O78      1.0000 0.00000  0.86740  0.07190  Biso   1.000  O 
  C211     1.0000 0.00000  0.84350  0.15650  Biso   1.000  C 
  C212     1.0000 0.00000  0.85530  0.20580  Biso   1.000  C 
  C213     1.0000 0.00000  0.79420  0.14470  Biso   1.000  C 
  C214     1.0000 0.00000  0.82050  0.24200  Biso   1.000  C 
  H188     1.0000 0.00000  0.88860  0.21490  Biso   1.000  H 
  C215     1.0000 0.00000  0.75800  0.17950  Biso   1.000  C 
  H189     1.0000 0.00000  0.78510  0.11140  Biso   1.000  H 
  C216     1.0000 0.00000  0.76930  0.23070  Biso   1.000  C 
  C217     1.0000 0.00000  0.73070  0.26930  Biso   1.000  C 
  H190     1.0000 0.00000  0.83050  0.27510  Biso   1.000  H 
  C218     1.0000 0.00000  0.74200  0.32050  Biso   1.000  C 
  H191     1.0000 0.00000  0.72490  0.16950  Biso   1.000  H 
  C219     1.0000 0.00000  0.67950  0.25800  Biso   1.000  C 
  C220     1.0000 0.00000  0.70580  0.35530  Biso   1.000  C 
  N12      1.0000 0.98371  0.79331  0.33920  Biso   1.000  N 
  C221     1.0000 0.00000  0.64470  0.29420  Biso   1.000  C 
  H192     1.0000 0.00000  0.66950  0.22490  Biso   1.000  H 
  C222     1.0000 0.00000  0.65650  0.34350  Biso   1.000  C 
  C223     1.0000 0.00000  0.61720  0.38280  Biso   1.000  C 
  H193     1.0000 0.00000  0.71490  0.38860  Biso   1.000  H 
  H194     1.0000 0.00000  0.61140  0.28510  Biso   1.000  H 
  O79      1.0000 0.00000  0.63260  0.42810  Biso   1.000  O 
  O80      1.0000 0.00000  0.57190  0.36740  Biso   1.000  O 
  H195     1.0000 0.95022  0.78943  0.35819  Biso   1.000  H 
  C224     1.0000 0.02253  0.81947  0.37021  Biso   1.000  C 
  C225     1.0000 0.07769  0.80494  0.36295  Biso   1.000  C 
  H196     1.0000 0.08621  0.78686  0.32706  Biso   1.000  H 
  C226     1.0000 0.09117  0.77386  0.40675  Biso   1.000  C 
  H197     1.0000 0.10099  0.83934  0.36685  Biso   1.000  H 
  C227     1.0000 0.05798  0.79047  0.44883  Biso   1.000  C 
  H198     1.0000 0.13156  0.77809  0.41595  Biso   1.000  H 
  H199     1.0000 0.08419  0.73471  0.39786  Biso   1.000  H 
  C228     1.0000 0.01296  0.81379  0.42561  Biso   1.000  C 
  H200     1.0000 0.07651  0.81618  0.47375  Biso   1.000  H 
  H201     1.0000 0.04778  0.75741  0.47063  Biso   1.000  H 
  H202     1.0000 0.00580  0.84999  0.44318  Biso   1.000  H 
  H203     1.0000 0.98037  0.78884  0.43332  Biso   1.000  H 
  H204     1.0000 0.01983  0.86028  0.36153  Biso   1.000  H 
  O81      1.0000 0.13260  0.50000  0.57190  Biso   1.000  O 
  C229     1.0000 0.11720  0.50000  0.61720  Biso   1.000  C 
  O82      1.0000 0.07190  0.50000  0.63260  Biso   1.000  O 
  C230     1.0000 0.15650  0.50000  0.65650  Biso   1.000  C 
  C231     1.0000 0.20580  0.50000  0.64470  Biso   1.000  C 
  C232     1.0000 0.14470  0.50000  0.70580  Biso   1.000  C 
  C233     1.0000 0.24200  0.50000  0.67950  Biso   1.000  C 
  H205     1.0000 0.21490  0.50000  0.61140  Biso   1.000  H 
  C234     1.0000 0.17950  0.50000  0.74200  Biso   1.000  C 
  H206     1.0000 0.11140  0.50000  0.71490  Biso   1.000  H 
  C235     1.0000 0.23070  0.50000  0.73070  Biso   1.000  C 
  C236     1.0000 0.26930  0.50000  0.76930  Biso   1.000  C 
  H207     1.0000 0.27510  0.50000  0.66950  Biso   1.000  H 
  C237     1.0000 0.32050  0.50000  0.75800  Biso   1.000  C 
  H208     1.0000 0.16950  0.50000  0.77510  Biso   1.000  H 
  C238     1.0000 0.25800  0.50000  0.82050  Biso   1.000  C 
  C239     1.0000 0.35530  0.50000  0.79420  Biso   1.000  C 
  N13      1.0000 0.34176  0.51551  0.70747  Biso   1.000  N 
  C240     1.0000 0.29420  0.50000  0.85530  Biso   1.000  C 
  H209     1.0000 0.22490  0.50000  0.83050  Biso   1.000  H 
  C241     1.0000 0.34350  0.50000  0.84350  Biso   1.000  C 
  C242     1.0000 0.38280  0.50000  0.88280  Biso   1.000  C 
  H210     1.0000 0.38860  0.50000  0.78510  Biso   1.000  H 
  H211     1.0000 0.28510  0.50000  0.88860  Biso   1.000  H 
  O83      1.0000 0.42810  0.50000  0.86740  Biso   1.000  O 
  O84      1.0000 0.36740  0.50000  0.92810  Biso   1.000  O 
  H212     1.0000 0.36884  0.54353  0.71190  Biso   1.000  H 
  C243     1.0000 0.36311  0.47678  0.67371  Biso   1.000  C 
  C244     1.0000 0.41789  0.46038  0.68009  Biso   1.000  C 
  H213     1.0000 0.43983  0.48766  0.70232  Biso   1.000  H 
  C245     1.0000 0.43959  0.45728  0.62603  Biso   1.000  C 
  H214     1.0000 0.42025  0.42309  0.69910  Biso   1.000  H 
  C246     1.0000 0.40450  0.48304  0.59069  Biso   1.000  C 
  H215     1.0000 0.43986  0.41813  0.61247  Biso   1.000  H 
  H216     1.0000 0.47706  0.47148  0.62467  Biso   1.000  H 
  C247     1.0000 0.36231  0.50179  0.62281  Biso   1.000  C 
  H217     1.0000 0.38934  0.45732  0.56175  Biso   1.000  H 
  H218     1.0000 0.42408  0.51489  0.57261  Biso   1.000  H 
  H219     1.0000 0.32645  0.49121  0.60418  Biso   1.000  H 
  H220     1.0000 0.36541  0.54332  0.62626  Biso   1.000  H 
  H221     1.0000 0.34007  0.44254  0.67238  Biso   1.000  H 
  O85      1.0000 0.86740  0.50000  0.57190  Biso   1.000  O 
  C248     1.0000 0.88280  0.50000  0.61720  Biso   1.000  C 
  O86      1.0000 0.92810  0.50000  0.63260  Biso   1.000  O 
  C249     1.0000 0.84350  0.50000  0.65650  Biso   1.000  C 
  C250     1.0000 0.79420  0.50000  0.64470  Biso   1.000  C 
  C251     1.0000 0.85530  0.50000  0.70580  Biso   1.000  C 
  C252     1.0000 0.75800  0.50000  0.67950  Biso   1.000  C 
  H222     1.0000 0.78510  0.50000  0.61140  Biso   1.000  H 
  C253     1.0000 0.82050  0.50000  0.74200  Biso   1.000  C 
  H223     1.0000 0.88860  0.50000  0.71490  Biso   1.000  H 
  C254     1.0000 0.76930  0.50000  0.73070  Biso   1.000  C 
  C255     1.0000 0.73070  0.50000  0.76930  Biso   1.000  C 
  H224     1.0000 0.72490  0.50000  0.66950  Biso   1.000  H 
  C256     1.0000 0.67950  0.50000  0.75800  Biso   1.000  C 
  H225     1.0000 0.83050  0.50000  0.77510  Biso   1.000  H 
  C257     1.0000 0.74200  0.50000  0.82050  Biso   1.000  C 
  C258     1.0000 0.64470  0.50000  0.79420  Biso   1.000  C 
  N14      1.0000 0.65824  0.48449  0.70747  Biso   1.000  N 
  C259     1.0000 0.70580  0.50000  0.85530  Biso   1.000  C 
  H226     1.0000 0.77510  0.50000  0.83050  Biso   1.000  H 
  C260     1.0000 0.65650  0.50000  0.84350  Biso   1.000  C 
  C261     1.0000 0.61720  0.50000  0.88280  Biso   1.000  C 
  H227     1.0000 0.61140  0.50000  0.78510  Biso   1.000  H 
  H228     1.0000 0.71490  0.50000  0.88860  Biso   1.000  H 
  O87      1.0000 0.57190  0.50000  0.86740  Biso   1.000  O 
  O88      1.0000 0.63260  0.50000  0.92810  Biso   1.000  O 
  H229     1.0000 0.63116  0.45647  0.71190  Biso   1.000  H 
  C262     1.0000 0.63689  0.52322  0.67371  Biso   1.000  C 
  C263     1.0000 0.58211  0.53962  0.68009  Biso   1.000  C 
  H230     1.0000 0.56017  0.51234  0.70232  Biso   1.000  H 
  C264     1.0000 0.56041  0.54272  0.62603  Biso   1.000  C 
  H231     1.0000 0.57975  0.57691  0.69910  Biso   1.000  H 
  C265     1.0000 0.59550  0.51696  0.59069  Biso   1.000  C 
  H232     1.0000 0.56014  0.58187  0.61247  Biso   1.000  H 
  H233     1.0000 0.52294  0.52852  0.62467  Biso   1.000  H 
  C266     1.0000 0.63769  0.49821  0.62281  Biso   1.000  C 
  H234     1.0000 0.61066  0.54268  0.56175  Biso   1.000  H 
  H235     1.0000 0.57592  0.48511  0.57261  Biso   1.000  H 
  H236     1.0000 0.67355  0.50879  0.60418  Biso   1.000  H 
  H237     1.0000 0.63459  0.45668  0.62626  Biso   1.000  H 
  H238     1.0000 0.65993  0.55746  0.67238  Biso   1.000  H 
  O89      1.0000 0.86740  0.50000  0.42810  Biso   1.000  O 
  C267     1.0000 0.88280  0.50000  0.38280  Biso   1.000  C 
  O90      1.0000 0.92810  0.50000  0.36740  Biso   1.000  O 
  C268     1.0000 0.84350  0.50000  0.34350  Biso   1.000  C 
  C269     1.0000 0.79420  0.50000  0.35530  Biso   1.000  C 
  C270     1.0000 0.85530  0.50000  0.29420  Biso   1.000  C 
  C271     1.0000 0.75800  0.50000  0.32050  Biso   1.000  C 
  H239     1.0000 0.78510  0.50000  0.38860  Biso   1.000  H 
  C272     1.0000 0.82050  0.50000  0.25800  Biso   1.000  C 
  H240     1.0000 0.88860  0.50000  0.28510  Biso   1.000  H 
  C273     1.0000 0.76930  0.50000  0.26930  Biso   1.000  C 
  C274     1.0000 0.73070  0.50000  0.23070  Biso   1.000  C 
  H241     1.0000 0.72490  0.50000  0.33050  Biso   1.000  H 
  C275     1.0000 0.67950  0.50000  0.24200  Biso   1.000  C 
  H242     1.0000 0.83050  0.50000  0.22490  Biso   1.000  H 
  C276     1.0000 0.74200  0.50000  0.17950  Biso   1.000  C 
  C277     1.0000 0.64470  0.50000  0.20580  Biso   1.000  C 
  N15      1.0000 0.65824  0.51551  0.29253  Biso   1.000  N 
  C278     1.0000 0.70580  0.50000  0.14470  Biso   1.000  C 
  H243     1.0000 0.77510  0.50000  0.16950  Biso   1.000  H 
  C279     1.0000 0.65650  0.50000  0.15650  Biso   1.000  C 
  C280     1.0000 0.61720  0.50000  0.11720  Biso   1.000  C 
  H244     1.0000 0.61140  0.50000  0.21490  Biso   1.000  H 
  H245     1.0000 0.71490  0.50000  0.11140  Biso   1.000  H 
  O91      1.0000 0.57190  0.50000  0.13260  Biso   1.000  O 
  O92      1.0000 0.63260  0.50000  0.07190  Biso   1.000  O 
  H246     1.0000 0.63116  0.54353  0.28810  Biso   1.000  H 
  C281     1.0000 0.63689  0.47678  0.32630  Biso   1.000  C 
  C282     1.0000 0.58211  0.46038  0.31991  Biso   1.000  C 
  H247     1.0000 0.56017  0.48766  0.29768  Biso   1.000  H 
  C283     1.0000 0.56041  0.45728  0.37397  Biso   1.000  C 
  H248     1.0000 0.57975  0.42309  0.30090  Biso   1.000  H 
  C284     1.0000 0.59550  0.48304  0.40931  Biso   1.000  C 
  H249     1.0000 0.56014  0.41813  0.38753  Biso   1.000  H 
  H250     1.0000 0.52294  0.47148  0.37533  Biso   1.000  H 
  C285     1.0000 0.63769  0.50179  0.37719  Biso   1.000  C 
  H251     1.0000 0.61066  0.45732  0.43825  Biso   1.000  H 
  H252     1.0000 0.57592  0.51489  0.42739  Biso   1.000  H 
  H253     1.0000 0.67355  0.49121  0.39582  Biso   1.000  H 
  H254     1.0000 0.63459  0.54332  0.37374  Biso   1.000  H 
  H255     1.0000 0.65993  0.44254  0.32762  Biso   1.000  H 
  O93      1.0000 0.13260  0.50000  0.42810  Biso   1.000  O 
  C286     1.0000 0.11720  0.50000  0.38280  Biso   1.000  C 
  O94      1.0000 0.07190  0.50000  0.36740  Biso   1.000  O 
  C287     1.0000 0.15650  0.50000  0.34350  Biso   1.000  C 
  C288     1.0000 0.20580  0.50000  0.35530  Biso   1.000  C 
  C289     1.0000 0.14470  0.50000  0.29420  Biso   1.000  C 
  C290     1.0000 0.24200  0.50000  0.32050  Biso   1.000  C 
  H256     1.0000 0.21490  0.50000  0.38860  Biso   1.000  H 
  C291     1.0000 0.17950  0.50000  0.25800  Biso   1.000  C 
  H257     1.0000 0.11140  0.50000  0.28510  Biso   1.000  H 
  C292     1.0000 0.23070  0.50000  0.26930  Biso   1.000  C 
  C293     1.0000 0.26930  0.50000  0.23070  Biso   1.000  C 
  H258     1.0000 0.27510  0.50000  0.33050  Biso   1.000  H 
  C294     1.0000 0.32050  0.50000  0.24200  Biso   1.000  C 
  H259     1.0000 0.16950  0.50000  0.22490  Biso   1.000  H 
  C295     1.0000 0.25800  0.50000  0.17950  Biso   1.000  C 
  C296     1.0000 0.35530  0.50000  0.20580  Biso   1.000  C 
  N16      1.0000 0.34176  0.48449  0.29253  Biso   1.000  N 
  C297     1.0000 0.29420  0.50000  0.14470  Biso   1.000  C 
  H260     1.0000 0.22490  0.50000  0.16950  Biso   1.000  H 
  C298     1.0000 0.34350  0.50000  0.15650  Biso   1.000  C 
  C299     1.0000 0.38280  0.50000  0.11720  Biso   1.000  C 
  H261     1.0000 0.38860  0.50000  0.21490  Biso   1.000  H 
  H262     1.0000 0.28510  0.50000  0.11140  Biso   1.000  H 
  O95      1.0000 0.42810  0.50000  0.13260  Biso   1.000  O 
  O96      1.0000 0.36740  0.50000  0.07190  Biso   1.000  O 
  H263     1.0000 0.36884  0.45647  0.28810  Biso   1.000  H 
  C300     1.0000 0.36311  0.52322  0.32630  Biso   1.000  C 
  C301     1.0000 0.41789  0.53962  0.31991  Biso   1.000  C 
  H264     1.0000 0.43983  0.51234  0.29768  Biso   1.000  H 
  C302     1.0000 0.43959  0.54272  0.37397  Biso   1.000  C 
  H265     1.0000 0.42025  0.57691  0.30090  Biso   1.000  H 
  C303     1.0000 0.40450  0.51696  0.40931  Biso   1.000  C 
  H266     1.0000 0.43986  0.58187  0.38753  Biso   1.000  H 
  H267     1.0000 0.47706  0.52852  0.37533  Biso   1.000  H 
  C304     1.0000 0.36231  0.49821  0.37719  Biso   1.000  C 
  H268     1.0000 0.38934  0.54268  0.43825  Biso   1.000  H 
  H269     1.0000 0.42408  0.48511  0.42739  Biso   1.000  H 
  H270     1.0000 0.32645  0.50879  0.39582  Biso   1.000  H 
  H271     1.0000 0.36541  0.45668  0.37374  Biso   1.000  H 
  H272     1.0000 0.34007  0.55746  0.32762  Biso   1.000  H 
  O97      1.0000 0.07190  0.63260  0.50000  Biso   1.000  O 
  C305     1.0000 0.11720  0.61720  0.50000  Biso   1.000  C 
  O98      1.0000 0.13260  0.57190  0.50000  Biso   1.000  O 
  C306     1.0000 0.15650  0.65650  0.50000  Biso   1.000  C 
  C307     1.0000 0.14470  0.70580  0.50000  Biso   1.000  C 
  C308     1.0000 0.20580  0.64470  0.50000  Biso   1.000  C 
  C309     1.0000 0.17950  0.74200  0.50000  Biso   1.000  C 
  H273     1.0000 0.11140  0.71490  0.50000  Biso   1.000  H 
  C310     1.0000 0.24200  0.67950  0.50000  Biso   1.000  C 
  H274     1.0000 0.21490  0.61140  0.50000  Biso   1.000  H 
  C311     1.0000 0.23070  0.73070  0.50000  Biso   1.000  C 
  C312     1.0000 0.26930  0.76930  0.50000  Biso   1.000  C 
  H275     1.0000 0.16950  0.77510  0.50000  Biso   1.000  H 
  C313     1.0000 0.25800  0.82050  0.50000  Biso   1.000  C 
  H276     1.0000 0.27510  0.66950  0.50000  Biso   1.000  H 
  C314     1.0000 0.32050  0.75800  0.50000  Biso   1.000  C 
  C315     1.0000 0.29420  0.85530  0.50000  Biso   1.000  C 
  N17      1.0000 0.20642  0.84253  0.50381  Biso   1.000  N 
  C316     1.0000 0.35530  0.79420  0.50000  Biso   1.000  C 
  H277     1.0000 0.33050  0.72490  0.50000  Biso   1.000  H 
  C317     1.0000 0.34350  0.84350  0.50000  Biso   1.000  C 
  C318     1.0000 0.38280  0.88280  0.50000  Biso   1.000  C 
  H278     1.0000 0.28510  0.88860  0.50000  Biso   1.000  H 
  H279     1.0000 0.38860  0.78510  0.50000  Biso   1.000  H 
  O99      1.0000 0.36740  0.92810  0.50000  Biso   1.000  O 
  O100     1.0000 0.42810  0.86740  0.50000  Biso   1.000  O 
  H280     1.0000 0.20427  0.86081  0.53736  Biso   1.000  H 
  C319     1.0000 0.18296  0.87011  0.46307  Biso   1.000  C 
  C320     1.0000 0.21159  0.86382  0.41532  Biso   1.000  C 
  H281     1.0000 0.25143  0.86668  0.42145  Biso   1.000  H 
  C321     1.0000 0.19991  0.90937  0.38574  Biso   1.000  C 
  H282     1.0000 0.20669  0.82962  0.39374  Biso   1.000  H 
  C322     1.0000 0.18974  0.95240  0.42174  Biso   1.000  C 
  H283     1.0000 0.16507  0.90249  0.36425  Biso   1.000  H 
  H284     1.0000 0.23213  0.91575  0.36010  Biso   1.000  H 
  C323     1.0000 0.17546  0.92694  0.47151  Biso   1.000  C 
  H285     1.0000 0.15664  0.97620  0.40669  Biso   1.000  H 
  H286     1.0000 0.22122  0.97749  0.42927  Biso   1.000  H 
  H287     1.0000 0.13558  0.93393  0.48010  Biso   1.000  H 
  H288     1.0000 0.19750  0.94230  0.50318  Biso   1.000  H 
  H289     1.0000 0.14632  0.85348  0.46019  Biso   1.000  H 
  O101     1.0000 0.07190  0.36740  0.50000  Biso   1.000  O 
  C324     1.0000 0.11720  0.38280  0.50000  Biso   1.000  C 
  O102     1.0000 0.13260  0.42810  0.50000  Biso   1.000  O 
  C325     1.0000 0.15650  0.34350  0.50000  Biso   1.000  C 
  C326     1.0000 0.14470  0.29420  0.50000  Biso   1.000  C 
  C327     1.0000 0.20580  0.35530  0.50000  Biso   1.000  C 
  C328     1.0000 0.17950  0.25800  0.50000  Biso   1.000  C 
  H290     1.0000 0.11140  0.28510  0.50000  Biso   1.000  H 
  C329     1.0000 0.24200  0.32050  0.50000  Biso   1.000  C 
  H291     1.0000 0.21490  0.38860  0.50000  Biso   1.000  H 
  C330     1.0000 0.23070  0.26930  0.50000  Biso   1.000  C 
  C331     1.0000 0.26930  0.23070  0.50000  Biso   1.000  C 
  H292     1.0000 0.16950  0.22490  0.50000  Biso   1.000  H 
  C332     1.0000 0.25800  0.17950  0.50000  Biso   1.000  C 
  H293     1.0000 0.27510  0.33050  0.50000  Biso   1.000  H 
  C333     1.0000 0.32050  0.24200  0.50000  Biso   1.000  C 
  C334     1.0000 0.29420  0.14470  0.50000  Biso   1.000  C 
  N18      1.0000 0.20642  0.15747  0.49619  Biso   1.000  N 
  C335     1.0000 0.35530  0.20580  0.50000  Biso   1.000  C 
  H294     1.0000 0.33050  0.27510  0.50000  Biso   1.000  H 
  C336     1.0000 0.34350  0.15650  0.50000  Biso   1.000  C 
  C337     1.0000 0.38280  0.11720  0.50000  Biso   1.000  C 
  H295     1.0000 0.28510  0.11140  0.50000  Biso   1.000  H 
  H296     1.0000 0.38860  0.21490  0.50000  Biso   1.000  H 
  O103     1.0000 0.36740  0.07190  0.50000  Biso   1.000  O 
  O104     1.0000 0.42810  0.13260  0.50000  Biso   1.000  O 
  H297     1.0000 0.20427  0.13919  0.46264  Biso   1.000  H 
  C338     1.0000 0.18296  0.12989  0.53693  Biso   1.000  C 
  C339     1.0000 0.21159  0.13618  0.58468  Biso   1.000  C 
  H298     1.0000 0.25143  0.13332  0.57855  Biso   1.000  H 
  C340     1.0000 0.19991  0.09063  0.61426  Biso   1.000  C 
  H299     1.0000 0.20669  0.17038  0.60626  Biso   1.000  H 
  C341     1.0000 0.18974  0.04760  0.57826  Biso   1.000  C 
  H300     1.0000 0.16507  0.09751  0.63575  Biso   1.000  H 
  H301     1.0000 0.23213  0.08425  0.63991  Biso   1.000  H 
  C342     1.0000 0.17546  0.07306  0.52849  Biso   1.000  C 
  H302     1.0000 0.15664  0.02380  0.59331  Biso   1.000  H 
  H303     1.0000 0.22122  0.02251  0.57073  Biso   1.000  H 
  H304     1.0000 0.13558  0.06607  0.51990  Biso   1.000  H 
  H305     1.0000 0.19750  0.05770  0.49682  Biso   1.000  H 
  H306     1.0000 0.14632  0.14652  0.53981  Biso   1.000  H 
  O105     1.0000 0.92810  0.36740  0.50000  Biso   1.000  O 
  C343     1.0000 0.88280  0.38280  0.50000  Biso   1.000  C 
  O106     1.0000 0.86740  0.42810  0.50000  Biso   1.000  O 
  C344     1.0000 0.84350  0.34350  0.50000  Biso   1.000  C 
  C345     1.0000 0.85530  0.29420  0.50000  Biso   1.000  C 
  C346     1.0000 0.79420  0.35530  0.50000  Biso   1.000  C 
  C347     1.0000 0.82050  0.25800  0.50000  Biso   1.000  C 
  H307     1.0000 0.88860  0.28510  0.50000  Biso   1.000  H 
  C348     1.0000 0.75800  0.32050  0.50000  Biso   1.000  C 
  H308     1.0000 0.78510  0.38860  0.50000  Biso   1.000  H 
  C349     1.0000 0.76930  0.26930  0.50000  Biso   1.000  C 
  C350     1.0000 0.73070  0.23070  0.50000  Biso   1.000  C 
  H309     1.0000 0.83050  0.22490  0.50000  Biso   1.000  H 
  C351     1.0000 0.74200  0.17950  0.50000  Biso   1.000  C 
  H310     1.0000 0.72490  0.33050  0.50000  Biso   1.000  H 
  C352     1.0000 0.67950  0.24200  0.50000  Biso   1.000  C 
  C353     1.0000 0.70580  0.14470  0.50000  Biso   1.000  C 
  N19      1.0000 0.79358  0.15747  0.50381  Biso   1.000  N 
  C354     1.0000 0.64470  0.20580  0.50000  Biso   1.000  C 
  H311     1.0000 0.66950  0.27510  0.50000  Biso   1.000  H 
  C355     1.0000 0.65650  0.15650  0.50000  Biso   1.000  C 
  C356     1.0000 0.61720  0.11720  0.50000  Biso   1.000  C 
  H312     1.0000 0.71490  0.11140  0.50000  Biso   1.000  H 
  H313     1.0000 0.61140  0.21490  0.50000  Biso   1.000  H 
  O107     1.0000 0.63260  0.07190  0.50000  Biso   1.000  O 
  O108     1.0000 0.57190  0.13260  0.50000  Biso   1.000  O 
  H314     1.0000 0.79573  0.13919  0.53736  Biso   1.000  H 
  C357     1.0000 0.81704  0.12989  0.46307  Biso   1.000  C 
  C358     1.0000 0.78841  0.13618  0.41532  Biso   1.000  C 
  H315     1.0000 0.74857  0.13332  0.42145  Biso   1.000  H 
  C359     1.0000 0.80009  0.09063  0.38574  Biso   1.000  C 
  H316     1.0000 0.79331  0.17038  0.39374  Biso   1.000  H 
  C360     1.0000 0.81025  0.04760  0.42174  Biso   1.000  C 
  H317     1.0000 0.83493  0.09751  0.36425  Biso   1.000  H 
  H318     1.0000 0.76787  0.08425  0.36010  Biso   1.000  H 
  C361     1.0000 0.82454  0.07306  0.47151  Biso   1.000  C 
  H319     1.0000 0.84336  0.02380  0.40669  Biso   1.000  H 
  H320     1.0000 0.77878  0.02251  0.42927  Biso   1.000  H 
  H321     1.0000 0.86443  0.06607  0.48010  Biso   1.000  H 
  H322     1.0000 0.80249  0.05770  0.50318  Biso   1.000  H 
  H323     1.0000 0.85368  0.14652  0.46019  Biso   1.000  H 
  O109     1.0000 0.92810  0.63260  0.50000  Biso   1.000  O 
  C362     1.0000 0.88280  0.61720  0.50000  Biso   1.000  C 
  O110     1.0000 0.86740  0.57190  0.50000  Biso   1.000  O 
  C363     1.0000 0.84350  0.65650  0.50000  Biso   1.000  C 
  C364     1.0000 0.85530  0.70580  0.50000  Biso   1.000  C 
  C365     1.0000 0.79420  0.64470  0.50000  Biso   1.000  C 
  C366     1.0000 0.82050  0.74200  0.50000  Biso   1.000  C 
  H324     1.0000 0.88860  0.71490  0.50000  Biso   1.000  H 
  C367     1.0000 0.75800  0.67950  0.50000  Biso   1.000  C 
  H325     1.0000 0.78510  0.61140  0.50000  Biso   1.000  H 
  C368     1.0000 0.76930  0.73070  0.50000  Biso   1.000  C 
  C369     1.0000 0.73070  0.76930  0.50000  Biso   1.000  C 
  H326     1.0000 0.83050  0.77510  0.50000  Biso   1.000  H 
  C370     1.0000 0.74200  0.82050  0.50000  Biso   1.000  C 
  H327     1.0000 0.72490  0.66950  0.50000  Biso   1.000  H 
  C371     1.0000 0.67950  0.75800  0.50000  Biso   1.000  C 
  C372     1.0000 0.70580  0.85530  0.50000  Biso   1.000  C 
  N20      1.0000 0.79358  0.84253  0.49619  Biso   1.000  N 
  C373     1.0000 0.64470  0.79420  0.50000  Biso   1.000  C 
  H328     1.0000 0.66950  0.72490  0.50000  Biso   1.000  H 
  C374     1.0000 0.65650  0.84350  0.50000  Biso   1.000  C 
  C375     1.0000 0.61720  0.88280  0.50000  Biso   1.000  C 
  H329     1.0000 0.71490  0.88860  0.50000  Biso   1.000  H 
  H330     1.0000 0.61140  0.78510  0.50000  Biso   1.000  H 
  O111     1.0000 0.63260  0.92810  0.50000  Biso   1.000  O 
  O112     1.0000 0.57190  0.86740  0.50000  Biso   1.000  O 
  H331     1.0000 0.79573  0.86081  0.46264  Biso   1.000  H 
  C376     1.0000 0.81704  0.87011  0.53693  Biso   1.000  C 
  C377     1.0000 0.78841  0.86382  0.58468  Biso   1.000  C 
  H332     1.0000 0.74857  0.86668  0.57855  Biso   1.000  H 
  C378     1.0000 0.80009  0.90937  0.61426  Biso   1.000  C 
  H333     1.0000 0.79331  0.82962  0.60626  Biso   1.000  H 
  C379     1.0000 0.81025  0.95240  0.57826  Biso   1.000  C 
  H334     1.0000 0.83493  0.90249  0.63575  Biso   1.000  H 
  H335     1.0000 0.76787  0.91575  0.63991  Biso   1.000  H 
  C380     1.0000 0.82454  0.92694  0.52849  Biso   1.000  C 
  H336     1.0000 0.84336  0.97620  0.59331  Biso   1.000  H 
  H337     1.0000 0.77878  0.97749  0.57073  Biso   1.000  H 
  H338     1.0000 0.86443  0.93393  0.51990  Biso   1.000  H 
  H339     1.0000 0.80249  0.94230  0.49682  Biso   1.000  H 
  H340     1.0000 0.85368  0.85348  0.53981  Biso   1.000  H 
  O113     1.0000 0.50000  0.07190  0.63260  Biso   1.000  O 
  C381     1.0000 0.50000  0.11720  0.61720  Biso   1.000  C 
  O114     1.0000 0.50000  0.13260  0.57190  Biso   1.000  O 
  C382     1.0000 0.50000  0.15650  0.65650  Biso   1.000  C 
  C383     1.0000 0.50000  0.14470  0.70580  Biso   1.000  C 
  C384     1.0000 0.50000  0.20580  0.64470  Biso   1.000  C 
  C385     1.0000 0.50000  0.17950  0.74200  Biso   1.000  C 
  H341     1.0000 0.50000  0.11140  0.71490  Biso   1.000  H 
  C386     1.0000 0.50000  0.24200  0.67950  Biso   1.000  C 
  H342     1.0000 0.50000  0.21490  0.61140  Biso   1.000  H 
  C387     1.0000 0.50000  0.23070  0.73070  Biso   1.000  C 
  C388     1.0000 0.50000  0.26930  0.76930  Biso   1.000  C 
  H343     1.0000 0.50000  0.16950  0.77510  Biso   1.000  H 
  C389     1.0000 0.50000  0.25800  0.82050  Biso   1.000  C 
  H344     1.0000 0.50000  0.27510  0.66950  Biso   1.000  H 
  C390     1.0000 0.50000  0.32050  0.75800  Biso   1.000  C 
  C391     1.0000 0.50000  0.29420  0.85530  Biso   1.000  C 
  N21      1.0000 0.51485  0.20716  0.84083  Biso   1.000  N 
  C392     1.0000 0.50000  0.35530  0.79420  Biso   1.000  C 
  H345     1.0000 0.50000  0.33050  0.72490  Biso   1.000  H 
  C393     1.0000 0.50000  0.34350  0.84350  Biso   1.000  C 
  C394     1.0000 0.50000  0.38280  0.88280  Biso   1.000  C 
  H346     1.0000 0.50000  0.28510  0.88860  Biso   1.000  H 
  H347     1.0000 0.50000  0.38860  0.78510  Biso   1.000  H 
  O115     1.0000 0.50000  0.36740  0.92810  Biso   1.000  O 
  O116     1.0000 0.50000  0.42810  0.86740  Biso   1.000  O 
  H348     1.0000 0.54723  0.21041  0.86250  Biso   1.000  H 
  C395     1.0000 0.47435  0.17836  0.86715  Biso   1.000  C 
  C396     1.0000 0.42206  0.20311  0.86692  Biso   1.000  C 
  H349     1.0000 0.42357  0.24246  0.85860  Biso   1.000  H 
  C397     1.0000 0.40124  0.19893  0.91929  Biso   1.000  C 
  H350     1.0000 0.39691  0.18589  0.83862  Biso   1.000  H 
  C398     1.0000 0.43562  0.16773  0.94874  Biso   1.000  C 
  H351     1.0000 0.36330  0.18088  0.91736  Biso   1.000  H 
  H352     1.0000 0.39619  0.23605  0.93588  Biso   1.000  H 
  C399     1.0000 0.48553  0.16579  0.92196  Biso   1.000  C 
  H353     1.0000 0.42055  0.12882  0.95183  Biso   1.000  H 
  H354     1.0000 0.43801  0.18456  0.98630  Biso   1.000  H 
  H355     1.0000 0.50822  0.13106  0.92801  Biso   1.000  H 
  H356     1.0000 0.50736  0.19610  0.93966  Biso   1.000  H 
  H357     1.0000 0.47110  0.14033  0.85013  Biso   1.000  H 
  O117     1.0000 0.50000  0.07190  0.36740  Biso   1.000  O 
  C400     1.0000 0.50000  0.11720  0.38280  Biso   1.000  C 
  O118     1.0000 0.50000  0.13260  0.42810  Biso   1.000  O 
  C401     1.0000 0.50000  0.15650  0.34350  Biso   1.000  C 
  C402     1.0000 0.50000  0.14470  0.29420  Biso   1.000  C 
  C403     1.0000 0.50000  0.20580  0.35530  Biso   1.000  C 
  C404     1.0000 0.50000  0.17950  0.25800  Biso   1.000  C 
  H358     1.0000 0.50000  0.11140  0.28510  Biso   1.000  H 
  C405     1.0000 0.50000  0.24200  0.32050  Biso   1.000  C 
  H359     1.0000 0.50000  0.21490  0.38860  Biso   1.000  H 
  C406     1.0000 0.50000  0.23070  0.26930  Biso   1.000  C 
  C407     1.0000 0.50000  0.26930  0.23070  Biso   1.000  C 
  H360     1.0000 0.50000  0.16950  0.22490  Biso   1.000  H 
  C408     1.0000 0.50000  0.25800  0.17950  Biso   1.000  C 
  H361     1.0000 0.50000  0.27510  0.33050  Biso   1.000  H 
  C409     1.0000 0.50000  0.32050  0.24200  Biso   1.000  C 
  C410     1.0000 0.50000  0.29420  0.14470  Biso   1.000  C 
  N22      1.0000 0.48515  0.20716  0.15917  Biso   1.000  N 
  C411     1.0000 0.50000  0.35530  0.20580  Biso   1.000  C 
  H362     1.0000 0.50000  0.33050  0.27510  Biso   1.000  H 
  C412     1.0000 0.50000  0.34350  0.15650  Biso   1.000  C 
  C413     1.0000 0.50000  0.38280  0.11720  Biso   1.000  C 
  H363     1.0000 0.50000  0.28510  0.11140  Biso   1.000  H 
  H364     1.0000 0.50000  0.38860  0.21490  Biso   1.000  H 
  O119     1.0000 0.50000  0.36740  0.07190  Biso   1.000  O 
  O120     1.0000 0.50000  0.42810  0.13260  Biso   1.000  O 
  H365     1.0000 0.45277  0.21041  0.13750  Biso   1.000  H 
  C414     1.0000 0.52565  0.17836  0.13284  Biso   1.000  C 
  C415     1.0000 0.57794  0.20311  0.13308  Biso   1.000  C 
  H366     1.0000 0.57643  0.24246  0.14140  Biso   1.000  H 
  C416     1.0000 0.59876  0.19893  0.08071  Biso   1.000  C 
  H367     1.0000 0.60309  0.18589  0.16138  Biso   1.000  H 
  C417     1.0000 0.56438  0.16773  0.05126  Biso   1.000  C 
  H368     1.0000 0.63670  0.18088  0.08264  Biso   1.000  H 
  H369     1.0000 0.60381  0.23605  0.06412  Biso   1.000  H 
  C418     1.0000 0.51447  0.16579  0.07804  Biso   1.000  C 
  H370     1.0000 0.57945  0.12882  0.04817  Biso   1.000  H 
  H371     1.0000 0.56199  0.18456  0.01370  Biso   1.000  H 
  H372     1.0000 0.49178  0.13106  0.07199  Biso   1.000  H 
  H373     1.0000 0.49264  0.19610  0.06034  Biso   1.000  H 
  H374     1.0000 0.52890  0.14033  0.14987  Biso   1.000  H 
  O121     1.0000 0.50000  0.92810  0.36740  Biso   1.000  O 
  C419     1.0000 0.50000  0.88280  0.38280  Biso   1.000  C 
  O122     1.0000 0.50000  0.86740  0.42810  Biso   1.000  O 
  C420     1.0000 0.50000  0.84350  0.34350  Biso   1.000  C 
  C421     1.0000 0.50000  0.85530  0.29420  Biso   1.000  C 
  C422     1.0000 0.50000  0.79420  0.35530  Biso   1.000  C 
  C423     1.0000 0.50000  0.82050  0.25800  Biso   1.000  C 
  H375     1.0000 0.50000  0.88860  0.28510  Biso   1.000  H 
  C424     1.0000 0.50000  0.75800  0.32050  Biso   1.000  C 
  H376     1.0000 0.50000  0.78510  0.38860  Biso   1.000  H 
  C425     1.0000 0.50000  0.76930  0.26930  Biso   1.000  C 
  C426     1.0000 0.50000  0.73070  0.23070  Biso   1.000  C 
  H377     1.0000 0.50000  0.83050  0.22490  Biso   1.000  H 
  C427     1.0000 0.50000  0.74200  0.17950  Biso   1.000  C 
  H378     1.0000 0.50000  0.72490  0.33050  Biso   1.000  H 
  C428     1.0000 0.50000  0.67950  0.24200  Biso   1.000  C 
  C429     1.0000 0.50000  0.70580  0.14470  Biso   1.000  C 
  N23      1.0000 0.51485  0.79284  0.15917  Biso   1.000  N 
  C430     1.0000 0.50000  0.64470  0.20580  Biso   1.000  C 
  H379     1.0000 0.50000  0.66950  0.27510  Biso   1.000  H 
  C431     1.0000 0.50000  0.65650  0.15650  Biso   1.000  C 
  C432     1.0000 0.50000  0.61720  0.11720  Biso   1.000  C 
  H380     1.0000 0.50000  0.71490  0.11140  Biso   1.000  H 
  H381     1.0000 0.50000  0.61140  0.21490  Biso   1.000  H 
  O123     1.0000 0.50000  0.63260  0.07190  Biso   1.000  O 
  O124     1.0000 0.50000  0.57190  0.13260  Biso   1.000  O 
  H382     1.0000 0.54723  0.78959  0.13750  Biso   1.000  H 
  C433     1.0000 0.47435  0.82164  0.13284  Biso   1.000  C 
  C434     1.0000 0.42206  0.79689  0.13308  Biso   1.000  C 
  H383     1.0000 0.42357  0.75754  0.14140  Biso   1.000  H 
  C435     1.0000 0.40124  0.80107  0.08071  Biso   1.000  C 
  H384     1.0000 0.39691  0.81411  0.16138  Biso   1.000  H 
  C436     1.0000 0.43562  0.83227  0.05126  Biso   1.000  C 
  H385     1.0000 0.36330  0.81912  0.08264  Biso   1.000  H 
  H386     1.0000 0.39619  0.76395  0.06412  Biso   1.000  H 
  C437     1.0000 0.48553  0.83421  0.07804  Biso   1.000  C 
  H387     1.0000 0.42055  0.87118  0.04817  Biso   1.000  H 
  H388     1.0000 0.43801  0.81544  0.01370  Biso   1.000  H 
  H389     1.0000 0.50822  0.86894  0.07199  Biso   1.000  H 
  H390     1.0000 0.50736  0.80390  0.06034  Biso   1.000  H 
  H391     1.0000 0.47110  0.85967  0.14987  Biso   1.000  H 
  O125     1.0000 0.50000  0.92810  0.63260  Biso   1.000  O 
  C438     1.0000 0.50000  0.88280  0.61720  Biso   1.000  C 
  O126     1.0000 0.50000  0.86740  0.57190  Biso   1.000  O 
  C439     1.0000 0.50000  0.84350  0.65650  Biso   1.000  C 
  C440     1.0000 0.50000  0.85530  0.70580  Biso   1.000  C 
  C441     1.0000 0.50000  0.79420  0.64470  Biso   1.000  C 
  C442     1.0000 0.50000  0.82050  0.74200  Biso   1.000  C 
  H392     1.0000 0.50000  0.88860  0.71490  Biso   1.000  H 
  C443     1.0000 0.50000  0.75800  0.67950  Biso   1.000  C 
  H393     1.0000 0.50000  0.78510  0.61140  Biso   1.000  H 
  C444     1.0000 0.50000  0.76930  0.73070  Biso   1.000  C 
  C445     1.0000 0.50000  0.73070  0.76930  Biso   1.000  C 
  H394     1.0000 0.50000  0.83050  0.77510  Biso   1.000  H 
  C446     1.0000 0.50000  0.74200  0.82050  Biso   1.000  C 
  H395     1.0000 0.50000  0.72490  0.66950  Biso   1.000  H 
  C447     1.0000 0.50000  0.67950  0.75800  Biso   1.000  C 
  C448     1.0000 0.50000  0.70580  0.85530  Biso   1.000  C 
  N24      1.0000 0.48515  0.79284  0.84083  Biso   1.000  N 
  C449     1.0000 0.50000  0.64470  0.79420  Biso   1.000  C 
  H396     1.0000 0.50000  0.66950  0.72490  Biso   1.000  H 
  C450     1.0000 0.50000  0.65650  0.84350  Biso   1.000  C 
  C451     1.0000 0.50000  0.61720  0.88280  Biso   1.000  C 
  H397     1.0000 0.50000  0.71490  0.88860  Biso   1.000  H 
  H398     1.0000 0.50000  0.61140  0.78510  Biso   1.000  H 
  O127     1.0000 0.50000  0.63260  0.92810  Biso   1.000  O 
  O128     1.0000 0.50000  0.57190  0.86740  Biso   1.000  O 
  H399     1.0000 0.45277  0.78959  0.86250  Biso   1.000  H 
  C452     1.0000 0.52565  0.82164  0.86715  Biso   1.000  C 
  C453     1.0000 0.57794  0.79689  0.86692  Biso   1.000  C 
  H400     1.0000 0.57643  0.75754  0.85860  Biso   1.000  H 
  C454     1.0000 0.59876  0.80107  0.91929  Biso   1.000  C 
  H401     1.0000 0.60309  0.81411  0.83862  Biso   1.000  H 
  C455     1.0000 0.56438  0.83227  0.94874  Biso   1.000  C 
  H402     1.0000 0.63670  0.81912  0.91736  Biso   1.000  H 
  H403     1.0000 0.60381  0.76395  0.93588  Biso   1.000  H 
  C456     1.0000 0.51447  0.83421  0.92196  Biso   1.000  C 
  H404     1.0000 0.57945  0.87118  0.95183  Biso   1.000  H 
  H405     1.0000 0.56199  0.81544  0.98630  Biso   1.000  H 
  H406     1.0000 0.49178  0.86894  0.92801  Biso   1.000  H 
  H407     1.0000 0.49264  0.80390  0.93966  Biso   1.000  H 
  H408     1.0000 0.52890  0.85967  0.85013  Biso   1.000  H 
