data_image0
_cell_length_a       20.7004
_cell_length_b       20.7004
_cell_length_c       20.7004
_cell_angle_alpha    90
_cell_angle_beta     90
_cell_angle_gamma    90

_symmetry_space_group_name_H-M    "P 1"
_symmetry_int_tables_number       1

loop_
  _symmetry_equiv_pos_as_xyz
  'x, y, z'

loop_
  _atom_site_label
  _atom_site_occupancy
  _atom_site_fract_x
  _atom_site_fract_y
  _atom_site_fract_z
  _atom_site_thermal_displace_type
  _atom_site_B_iso_or_equiv
  _atom_site_type_symbol
  Zr1      1.0000 0.11989  0.00000  0.00000  Biso   1.000  Zr
  Zr2      1.0000 0.11989  0.50000  0.50000  Biso   1.000  Zr
  Zr3      1.0000 0.61989  0.00000  0.50000  Biso   1.000  Zr
  Zr4      1.0000 0.61989  0.50000  0.00000  Biso   1.000  Zr
  Zr5      1.0000 0.88011  0.00000  0.00000  Biso   1.000  Zr
  Zr6      1.0000 0.88011  0.50000  0.50000  Biso   1.000  Zr
  Zr7      1.0000 0.38011  0.00000  0.50000  Biso   1.000  Zr
  Zr8      1.0000 0.38011  0.50000  0.00000  Biso   1.000  Zr
  Zr9      1.0000 0.00000  0.11989  0.00000  Biso   1.000  Zr
  Zr10     1.0000 0.00000  0.61989  0.50000  Biso   1.000  Zr
  Zr11     1.0000 0.50000  0.11989  0.50000  Biso   1.000  Zr
  Zr12     1.0000 0.50000  0.61989  0.00000  Biso   1.000  Zr
  Zr13     1.0000 0.00000  0.88011  0.00000  Biso   1.000  Zr
  Zr14     1.0000 0.00000  0.38011  0.50000  Biso   1.000  Zr
  Zr15     1.0000 0.50000  0.88011  0.50000  Biso   1.000  Zr
  Zr16     1.0000 0.50000  0.38011  0.00000  Biso   1.000  Zr
  Zr17     1.0000 0.00000  0.00000  0.11989  Biso   1.000  Zr
  Zr18     1.0000 0.00000  0.50000  0.61989  Biso   1.000  Zr
  Zr19     1.0000 0.50000  0.00000  0.61989  Biso   1.000  Zr
  Zr20     1.0000 0.50000  0.50000  0.11989  Biso   1.000  Zr
  Zr21     1.0000 0.00000  0.00000  0.88011  Biso   1.000  Zr
  Zr22     1.0000 0.00000  0.50000  0.38011  Biso   1.000  Zr
  Zr23     1.0000 0.50000  0.00000  0.38011  Biso   1.000  Zr
  Zr24     1.0000 0.50000  0.50000  0.88011  Biso   1.000  Zr
  O1       1.0000 0.05610  0.44390  0.44390  Biso   1.000  O 
  O2       1.0000 0.55610  0.94390  0.44390  Biso   1.000  O 
  O3       1.0000 0.55610  0.44390  0.94390  Biso   1.000  O 
  O4       1.0000 0.44390  0.05610  0.44390  Biso   1.000  O 
  O5       1.0000 0.44390  0.55610  0.94390  Biso   1.000  O 
  O6       1.0000 0.94390  0.94390  0.05610  Biso   1.000  O 
  O7       1.0000 0.94390  0.44390  0.55610  Biso   1.000  O 
  O8       1.0000 0.05610  0.05610  0.05610  Biso   1.000  O 
  O9       1.0000 0.55610  0.55610  0.05610  Biso   1.000  O 
  O10      1.0000 0.94390  0.05610  0.05610  Biso   1.000  O 
  O11      1.0000 0.94390  0.55610  0.55610  Biso   1.000  O 
  O12      1.0000 0.44390  0.05610  0.55610  Biso   1.000  O 
  O13      1.0000 0.44390  0.55610  0.05610  Biso   1.000  O 
  O14      1.0000 0.05610  0.94390  0.05610  Biso   1.000  O 
  O15      1.0000 0.05610  0.44390  0.55610  Biso   1.000  O 
  O16      1.0000 0.55610  0.94390  0.55610  Biso   1.000  O 
  O17      1.0000 0.55610  0.44390  0.05610  Biso   1.000  O 
  O18      1.0000 0.94390  0.94390  0.94390  Biso   1.000  O 
  O19      1.0000 0.94390  0.44390  0.44390  Biso   1.000  O 
  O20      1.0000 0.44390  0.94390  0.44390  Biso   1.000  O 
  O21      1.0000 0.44390  0.44390  0.94390  Biso   1.000  O 
  O22      1.0000 0.05610  0.05610  0.94390  Biso   1.000  O 
  O23      1.0000 0.05610  0.55610  0.44390  Biso   1.000  O 
  O24      1.0000 0.55610  0.05610  0.44390  Biso   1.000  O 
  C1       1.0000 0.15360  0.00000  0.84640  Biso   1.000  C 
  O25      1.0000 0.17046  0.00000  0.90471  Biso   1.000  O 
  O26      1.0000 0.09529  0.00000  0.82954  Biso   1.000  O 
  C2       1.0000 0.20500  0.00000  0.79500  Biso   1.000  C 
  C3       1.0000 0.18437  0.00000  0.73249  Biso   1.000  C 
  N1       1.0000 0.12209  0.97043  0.71283  Biso   1.000  N 
  H1       1.0000 0.22128  0.00000  0.63051  Biso   1.000  H 
  C4       1.0000 0.23249  0.00000  0.68442  Biso   1.000  C 
  C5       1.0000 0.29500  0.00000  0.70500  Biso   1.000  C 
  C6       1.0000 0.31558  0.00000  0.76751  Biso   1.000  C 
  C7       1.0000 0.26751  0.00000  0.81563  Biso   1.000  C 
  H2       1.0000 0.27872  0.00000  0.86954  Biso   1.000  H 
  N2       1.0000 0.37947  0.02188  0.78584  Biso   1.000  N 
  O27      1.0000 0.40470  0.00000  0.67046  Biso   1.000  O 
  C8       1.0000 0.34640  0.00000  0.65360  Biso   1.000  C 
  O28      1.0000 0.32954  0.00000  0.59529  Biso   1.000  O 
  H3       1.0000 0.08245  0.99607  0.72338  Biso   1.000  H 
  C9       1.0000 0.11948  0.90065  0.72671  Biso   1.000  C 
  H4       1.0000 0.09540  0.87711  0.68489  Biso   1.000  H 
  H5       1.0000 0.08702  0.89804  0.76781  Biso   1.000  H 
  C10      1.0000 0.17594  0.86253  0.75280  Biso   1.000  C 
  H6       1.0000 0.20588  0.88529  0.78741  Biso   1.000  H 
  C11      1.0000 0.21819  0.83234  0.70029  Biso   1.000  C 
  H7       1.0000 0.15163  0.81788  0.77559  Biso   1.000  H 
  H8       1.0000 0.24097  0.86831  0.66716  Biso   1.000  H 
  C12      1.0000 0.18795  0.78360  0.65861  Biso   1.000  C 
  H9       1.0000 0.25785  0.81263  0.72973  Biso   1.000  H 
  C13      1.0000 0.38676  0.09178  0.77082  Biso   1.000  C 
  H10      1.0000 0.41394  0.98653  0.77292  Biso   1.000  H 
  H11      1.0000 0.40506  0.11821  0.81403  Biso   1.000  H 
  C14      1.0000 0.33093  0.13262  0.73981  Biso   1.000  C 
  H12      1.0000 0.42139  0.09000  0.73443  Biso   1.000  H 
  H13      1.0000 0.30321  0.11284  0.69847  Biso   1.000  H 
  H14      1.0000 0.35536  0.17324  0.71747  Biso   1.000  H 
  C15      1.0000 0.28360  0.15723  0.78954  Biso   1.000  C 
  C16      1.0000 0.30596  0.20249  0.84311  Biso   1.000  C 
  H15      1.0000 0.25840  0.11973  0.81650  Biso   1.000  H 
  H16      1.0000 0.24614  0.18200  0.75995  Biso   1.000  H 
  H17      1.0000 0.17778  0.74025  0.68452  Biso   1.000  H 
  H18      1.0000 0.22030  0.77405  0.61990  Biso   1.000  H 
  H19      1.0000 0.14231  0.80341  0.63629  Biso   1.000  H 
  H20      1.0000 0.26191  0.21446  0.87306  Biso   1.000  H 
  H21      1.0000 0.32394  0.24663  0.82124  Biso   1.000  H 
  H22      1.0000 0.34176  0.17949  0.87309  Biso   1.000  H 
  C17      1.0000 0.15360  0.50000  0.34640  Biso   1.000  C 
  O29      1.0000 0.17046  0.50000  0.40471  Biso   1.000  O 
  O30      1.0000 0.09529  0.50000  0.32954  Biso   1.000  O 
  C18      1.0000 0.20500  0.50000  0.29500  Biso   1.000  C 
  C19      1.0000 0.18437  0.50000  0.23249  Biso   1.000  C 
  N3       1.0000 0.12182  0.47349  0.21631  Biso   1.000  N 
  H23      1.0000 0.22128  0.50000  0.13051  Biso   1.000  H 
  C20      1.0000 0.23249  0.50000  0.18442  Biso   1.000  C 
  C21      1.0000 0.29500  0.50000  0.20500  Biso   1.000  C 
  C22      1.0000 0.31558  0.50000  0.26751  Biso   1.000  C 
  C23      1.0000 0.26751  0.50000  0.31563  Biso   1.000  C 
  H24      1.0000 0.27872  0.50000  0.36954  Biso   1.000  H 
  N4       1.0000 0.37712  0.52845  0.28622  Biso   1.000  N 
  O31      1.0000 0.40470  0.50000  0.17046  Biso   1.000  O 
  C24      1.0000 0.34640  0.50000  0.15360  Biso   1.000  C 
  O32      1.0000 0.32954  0.50000  0.09529  Biso   1.000  O 
  H25      1.0000 0.08689  0.50994  0.22399  Biso   1.000  H 
  C25      1.0000 0.11505  0.40623  0.23534  Biso   1.000  C 
  H26      1.0000 0.09130  0.38072  0.19352  Biso   1.000  H 
  H27      1.0000 0.08400  0.40452  0.27270  Biso   1.000  H 
  C26      1.0000 0.17296  0.36117  0.25707  Biso   1.000  C 
  H28      1.0000 0.20165  0.38430  0.29764  Biso   1.000  H 
  C27      1.0000 0.21594  0.33339  0.20422  Biso   1.000  C 
  H29      1.0000 0.14874  0.32049  0.27758  Biso   1.000  H 
  H30      1.0000 0.23635  0.37307  0.17467  Biso   1.000  H 
  C28      1.0000 0.17912  0.29064  0.15749  Biso   1.000  C 
  H31      1.0000 0.25970  0.31431  0.22892  Biso   1.000  H 
  C29      1.0000 0.37966  0.59702  0.26586  Biso   1.000  C 
  H32      1.0000 0.41369  0.49606  0.27345  Biso   1.000  H 
  H33      1.0000 0.39900  0.62357  0.30697  Biso   1.000  H 
  C30      1.0000 0.31729  0.63559  0.24663  Biso   1.000  C 
  H34      1.0000 0.41187  0.59988  0.22594  Biso   1.000  H 
  H35      1.0000 0.28707  0.61309  0.20952  Biso   1.000  H 
  H36      1.0000 0.33941  0.67748  0.22281  Biso   1.000  H 
  C31      1.0000 0.27133  0.65966  0.29957  Biso   1.000  C 
  C32      1.0000 0.29786  0.70656  0.34813  Biso   1.000  C 
  H37      1.0000 0.24399  0.62247  0.32433  Biso   1.000  H 
  H38      1.0000 0.23685  0.68565  0.26919  Biso   1.000  H 
  H39      1.0000 0.15684  0.24935  0.18088  Biso   1.000  H 
  H40      1.0000 0.21502  0.27678  0.11994  Biso   1.000  H 
  H41      1.0000 0.14101  0.31107  0.12598  Biso   1.000  H 
  H42      1.0000 0.25922  0.73011  0.37731  Biso   1.000  H 
  H43      1.0000 0.32537  0.74251  0.32311  Biso   1.000  H 
  H44      1.0000 0.33192  0.68033  0.37824  Biso   1.000  H 
  C33      1.0000 0.65360  0.00000  0.34640  Biso   1.000  C 
  O33      1.0000 0.67046  0.00000  0.40471  Biso   1.000  O 
  O34      1.0000 0.59529  0.00000  0.32954  Biso   1.000  O 
  C34      1.0000 0.70500  0.00000  0.29500  Biso   1.000  C 
  C35      1.0000 0.68437  0.00000  0.23249  Biso   1.000  C 
  N5       1.0000 0.62128  0.97573  0.21240  Biso   1.000  N 
  H45      1.0000 0.72128  0.00000  0.13051  Biso   1.000  H 
  C36      1.0000 0.73248  0.00000  0.18442  Biso   1.000  C 
  C37      1.0000 0.79499  0.00000  0.20500  Biso   1.000  C 
  C38      1.0000 0.81558  0.00000  0.26751  Biso   1.000  C 
  C39      1.0000 0.76751  0.00000  0.31563  Biso   1.000  C 
  H46      1.0000 0.77872  0.00000  0.36954  Biso   1.000  H 
  N6       1.0000 0.87874  0.02792  0.28457  Biso   1.000  N 
  O35      1.0000 0.90470  0.00000  0.17046  Biso   1.000  O 
  C40      1.0000 0.84639  0.00000  0.15360  Biso   1.000  C 
  O36      1.0000 0.82953  0.00000  0.09529  Biso   1.000  O 
  H47      1.0000 0.58659  0.00940  0.22359  Biso   1.000  H 
  C41      1.0000 0.61560  0.90680  0.22809  Biso   1.000  C 
  H48      1.0000 0.59208  0.88119  0.18768  Biso   1.000  H 
  H49      1.0000 0.58358  0.90575  0.26873  Biso   1.000  H 
  C42      1.0000 0.66573  0.86120  0.25507  Biso   1.000  C 
  H50      1.0000 0.69157  0.88187  0.29547  Biso   1.000  H 
  C43      1.0000 0.71787  0.83554  0.20828  Biso   1.000  C 
  H51      1.0000 0.63424  0.82157  0.27544  Biso   1.000  H 
  H52      1.0000 0.74307  0.87608  0.18300  Biso   1.000  H 
  C44      1.0000 0.68443  0.79062  0.15469  Biso   1.000  C 
  H53      1.0000 0.75454  0.81035  0.23246  Biso   1.000  H 
  C45      1.0000 0.88049  0.09577  0.26506  Biso   1.000  C 
  H54      1.0000 0.91730  0.99613  0.27301  Biso   1.000  H 
  H55      1.0000 0.89997  0.12211  0.30566  Biso   1.000  H 
  C46      1.0000 0.81795  0.13097  0.24076  Biso   1.000  C 
  H56      1.0000 0.91270  0.09943  0.22545  Biso   1.000  H 
  H57      1.0000 0.78873  0.11257  0.20036  Biso   1.000  H 
  H58      1.0000 0.83796  0.17316  0.21988  Biso   1.000  H 
  C47      1.0000 0.77073  0.15742  0.29223  Biso   1.000  C 
  C48      1.0000 0.79928  0.19875  0.34146  Biso   1.000  C 
  H59      1.0000 0.74362  0.11660  0.31579  Biso   1.000  H 
  H60      1.0000 0.73494  0.18614  0.26267  Biso   1.000  H 
  H61      1.0000 0.66696  0.74088  0.17224  Biso   1.000  H 
  H62      1.0000 0.71992  0.78544  0.11651  Biso   1.000  H 
  H63      1.0000 0.64153  0.81429  0.13289  Biso   1.000  H 
  H64      1.0000 0.76554  0.21360  0.37968  Biso   1.000  H 
  H65      1.0000 0.82264  0.24347  0.32117  Biso   1.000  H 
  H66      1.0000 0.83530  0.16885  0.36600  Biso   1.000  H 
  C49      1.0000 0.65360  0.50000  0.84640  Biso   1.000  C 
  O37      1.0000 0.67046  0.50000  0.90471  Biso   1.000  O 
  O38      1.0000 0.59529  0.50000  0.82954  Biso   1.000  O 
  C50      1.0000 0.70500  0.50000  0.79500  Biso   1.000  C 
  C51      1.0000 0.68437  0.50000  0.73249  Biso   1.000  C 
  N7       1.0000 0.62125  0.47584  0.71037  Biso   1.000  N 
  H67      1.0000 0.72128  0.50000  0.63051  Biso   1.000  H 
  C52      1.0000 0.73248  0.50000  0.68442  Biso   1.000  C 
  C53      1.0000 0.79499  0.50000  0.70500  Biso   1.000  C 
  C54      1.0000 0.81558  0.50000  0.76751  Biso   1.000  C 
  C55      1.0000 0.76751  0.50000  0.81563  Biso   1.000  C 
  H68      1.0000 0.77872  0.50000  0.86954  Biso   1.000  H 
  N8       1.0000 0.87758  0.53187  0.78337  Biso   1.000  N 
  O39      1.0000 0.90470  0.50000  0.67046  Biso   1.000  O 
  C56      1.0000 0.84639  0.50000  0.65360  Biso   1.000  C 
  O40      1.0000 0.82953  0.50000  0.59529  Biso   1.000  O 
  H69      1.0000 0.58785  0.51396  0.71096  Biso   1.000  H 
  C57      1.0000 0.60902  0.40555  0.72289  Biso   1.000  C 
  H70      1.0000 0.58481  0.38278  0.68131  Biso   1.000  H 
  H71      1.0000 0.58072  0.40286  0.76685  Biso   1.000  H 
  C58      1.0000 0.66417  0.36500  0.75184  Biso   1.000  C 
  H72      1.0000 0.68892  0.38681  0.79230  Biso   1.000  H 
  C59      1.0000 0.71790  0.33873  0.70858  Biso   1.000  C 
  H73      1.0000 0.63994  0.32312  0.77106  Biso   1.000  H 
  H74      1.0000 0.73790  0.37699  0.67927  Biso   1.000  H 
  C60      1.0000 0.68629  0.29080  0.66060  Biso   1.000  C 
  H75      1.0000 0.76087  0.31937  0.73887  Biso   1.000  H 
  C61      1.0000 0.87795  0.60085  0.75948  Biso   1.000  C 
  H76      1.0000 0.91605  0.49778  0.77303  Biso   1.000  H 
  H77      1.0000 0.89839  0.62933  0.79865  Biso   1.000  H 
  C62      1.0000 0.81649  0.63585  0.74000  Biso   1.000  C 
  H78      1.0000 0.90829  0.60541  0.71817  Biso   1.000  H 
  H79      1.0000 0.78267  0.61203  0.70818  Biso   1.000  H 
  H80      1.0000 0.83233  0.67759  0.71073  Biso   1.000  H 
  C63      1.0000 0.77579  0.66082  0.79609  Biso   1.000  C 
  C64      1.0000 0.80617  0.70261  0.84690  Biso   1.000  C 
  H81      1.0000 0.75071  0.61940  0.81796  Biso   1.000  H 
  H82      1.0000 0.73957  0.68943  0.77213  Biso   1.000  H 
  H83      1.0000 0.66779  0.24648  0.68150  Biso   1.000  H 
  H84      1.0000 0.71819  0.28085  0.62006  Biso   1.000  H 
  H85      1.0000 0.64557  0.31153  0.63811  Biso   1.000  H 
  H86      1.0000 0.76834  0.72603  0.87920  Biso   1.000  H 
  H87      1.0000 0.83182  0.74251  0.82270  Biso   1.000  H 
  H88      1.0000 0.83990  0.67496  0.87586  Biso   1.000  H 
  C65      1.0000 0.84640  0.00000  0.84640  Biso   1.000  C 
  O41      1.0000 0.82954  0.00000  0.90471  Biso   1.000  O 
  O42      1.0000 0.90471  0.00000  0.82954  Biso   1.000  O 
  C66      1.0000 0.79500  0.00000  0.79500  Biso   1.000  C 
  C67      1.0000 0.81563  0.00000  0.73249  Biso   1.000  C 
  N9       1.0000 0.87026  0.95273  0.71650  Biso   1.000  N 
  H89      1.0000 0.77872  0.00000  0.63051  Biso   1.000  H 
  C68      1.0000 0.76752  0.00000  0.68442  Biso   1.000  C 
  C69      1.0000 0.70501  0.00000  0.70500  Biso   1.000  C 
  C70      1.0000 0.68442  0.00000  0.76751  Biso   1.000  C 
  C71      1.0000 0.73249  0.00000  0.81563  Biso   1.000  C 
  H90      1.0000 0.72128  0.00000  0.86954  Biso   1.000  H 
  N10      1.0000 0.61779  0.01912  0.78449  Biso   1.000  N 
  O43      1.0000 0.59530  0.00000  0.67046  Biso   1.000  O 
  C72      1.0000 0.65361  0.00000  0.65360  Biso   1.000  C 
  O44      1.0000 0.67047  0.00000  0.59529  Biso   1.000  O 
  H91      1.0000 0.87324  0.91280  0.74757  Biso   1.000  H 
  C73      1.0000 0.93686  0.97180  0.70391  Biso   1.000  C 
  H92      1.0000 0.95617  0.95033  0.66175  Biso   1.000  H 
  H93      1.0000 0.96384  0.95551  0.74224  Biso   1.000  H 
  C74      1.0000 0.95161  0.04009  0.70625  Biso   1.000  C 
  H94      1.0000 0.92742  0.06198  0.74553  Biso   1.000  H 
  C75      1.0000 0.93049  0.07104  0.64884  Biso   1.000  C 
  H95      1.0000 0.00200  0.03740  0.72052  Biso   1.000  H 
  H96      1.0000 0.92330  0.12057  0.66094  Biso   1.000  H 
  C76      1.0000 0.98438  0.06304  0.60188  Biso   1.000  C 
  H97      1.0000 0.88210  0.05125  0.64110  Biso   1.000  H 
  C77      1.0000 0.57878  0.95950  0.78256  Biso   1.000  C 
  H98      1.0000 0.59742  0.05857  0.76481  Biso   1.000  H 
  H99      1.0000 0.53091  0.96754  0.76150  Biso   1.000  H 
  C78      1.0000 0.57218  0.93563  0.84892  Biso   1.000  C 
  H100     1.0000 0.60117  0.91977  0.75278  Biso   1.000  H 
  H101     1.0000 0.61453  0.95060  0.87538  Biso   1.000  H 
  H102     1.0000 0.57567  0.88564  0.84472  Biso   1.000  H 
  C79      1.0000 0.50727  0.95976  0.87474  Biso   1.000  C 
  C80      1.0000 0.49895  0.03068  0.86088  Biso   1.000  C 
  H103     1.0000 0.50944  0.95836  0.92630  Biso   1.000  H 
  H104     1.0000 0.46682  0.92767  0.85856  Biso   1.000  H 
  H105     1.0000 0.98774  0.01538  0.57786  Biso   1.000  H 
  H106     1.0000 0.03083  0.07578  0.62412  Biso   1.000  H 
  H107     1.0000 0.97337  0.09916  0.56300  Biso   1.000  H 
  H108     1.0000 0.54731  0.04537  0.86460  Biso   1.000  H 
  H109     1.0000 0.46861  0.06360  0.88915  Biso   1.000  H 
  H110     1.0000 0.48549  0.03738  0.81298  Biso   1.000  H 
  C81      1.0000 0.84640  0.50000  0.34640  Biso   1.000  C 
  O45      1.0000 0.82954  0.50000  0.40471  Biso   1.000  O 
  O46      1.0000 0.90471  0.50000  0.32954  Biso   1.000  O 
  C82      1.0000 0.79500  0.50000  0.29500  Biso   1.000  C 
  C83      1.0000 0.81563  0.50000  0.23249  Biso   1.000  C 
  N11      1.0000 0.86959  0.45176  0.21805  Biso   1.000  N 
  H111     1.0000 0.77872  0.50000  0.13051  Biso   1.000  H 
  C84      1.0000 0.76752  0.50000  0.18442  Biso   1.000  C 
  C85      1.0000 0.70501  0.50000  0.20500  Biso   1.000  C 
  C86      1.0000 0.68442  0.50000  0.26751  Biso   1.000  C 
  C87      1.0000 0.73249  0.50000  0.31563  Biso   1.000  C 
  H112     1.0000 0.72128  0.50000  0.36954  Biso   1.000  H 
  N12      1.0000 0.61541  0.51664  0.28430  Biso   1.000  N 
  O47      1.0000 0.59530  0.50000  0.17046  Biso   1.000  O 
  C88      1.0000 0.65361  0.50000  0.15360  Biso   1.000  C 
  O48      1.0000 0.67047  0.50000  0.09529  Biso   1.000  O 
  H113     1.0000 0.87333  0.41526  0.25461  Biso   1.000  H 
  C89      1.0000 0.93593  0.46908  0.20401  Biso   1.000  C 
  H114     1.0000 0.95393  0.44721  0.16167  Biso   1.000  H 
  H115     1.0000 0.96320  0.45387  0.24580  Biso   1.000  H 
  C90      1.0000 0.94635  0.53968  0.20568  Biso   1.000  C 
  H116     1.0000 0.92791  0.56317  0.24882  Biso   1.000  H 
  C91      1.0000 0.92086  0.57425  0.14963  Biso   1.000  C 
  H117     1.0000 0.99821  0.54098  0.20665  Biso   1.000  H 
  H118     1.0000 0.91920  0.62364  0.16484  Biso   1.000  H 
  C92      1.0000 0.96416  0.56819  0.09325  Biso   1.000  C 
  H119     1.0000 0.87095  0.55842  0.14364  Biso   1.000  H 
  C93      1.0000 0.57880  0.45580  0.27930  Biso   1.000  C 
  H120     1.0000 0.59813  0.55913  0.26530  Biso   1.000  H 
  H121     1.0000 0.53393  0.46515  0.25489  Biso   1.000  H 
  C94      1.0000 0.56868  0.43349  0.34668  Biso   1.000  C 
  H122     1.0000 0.60464  0.41950  0.25015  Biso   1.000  H 
  H123     1.0000 0.60618  0.45585  0.37921  Biso   1.000  H 
  H124     1.0000 0.57296  0.38310  0.35325  Biso   1.000  H 
  C95      1.0000 0.50352  0.46022  0.36895  Biso   1.000  C 
  C96      1.0000 0.49793  0.53161  0.35283  Biso   1.000  C 
  H125     1.0000 0.50609  0.45979  0.42328  Biso   1.000  H 
  H126     1.0000 0.45952  0.43679  0.35311  Biso   1.000  H 
  H127     1.0000 0.97143  0.51691  0.07887  Biso   1.000  H 
  H128     1.0000 0.01502  0.58644  0.10727  Biso   1.000  H 
  H129     1.0000 0.94647  0.59473  0.04831  Biso   1.000  H 
  H130     1.0000 0.54712  0.54369  0.36578  Biso   1.000  H 
  H131     1.0000 0.46198  0.56268  0.38030  Biso   1.000  H 
  H132     1.0000 0.49089  0.54043  0.30336  Biso   1.000  H 
  C97      1.0000 0.34640  0.00000  0.34640  Biso   1.000  C 
  O49      1.0000 0.32954  0.00000  0.40471  Biso   1.000  O 
  O50      1.0000 0.40471  0.00000  0.32954  Biso   1.000  O 
  C98      1.0000 0.29500  0.00000  0.29500  Biso   1.000  C 
  C99      1.0000 0.31563  0.00000  0.23249  Biso   1.000  C 
  N13      1.0000 0.37405  0.95419  0.21492  Biso   1.000  N 
  H133     1.0000 0.27872  0.00000  0.13051  Biso   1.000  H 
  C100     1.0000 0.26751  0.00000  0.18442  Biso   1.000  C 
  C101     1.0000 0.20500  0.00000  0.20500  Biso   1.000  C 
  C102     1.0000 0.18442  0.00000  0.26751  Biso   1.000  C 
  C103     1.0000 0.23249  0.00000  0.31563  Biso   1.000  C 
  H134     1.0000 0.22128  0.00000  0.36954  Biso   1.000  H 
  N14      1.0000 0.11604  0.01881  0.28576  Biso   1.000  N 
  O51      1.0000 0.09530  0.00000  0.17046  Biso   1.000  O 
  C104     1.0000 0.15360  0.00000  0.15360  Biso   1.000  C 
  O52      1.0000 0.17046  0.00000  0.09529  Biso   1.000  O 
  H135     1.0000 0.37275  0.91972  0.25339  Biso   1.000  H 
  C105     1.0000 0.44015  0.97278  0.20833  Biso   1.000  C 
  H136     1.0000 0.46490  0.95406  0.16780  Biso   1.000  H 
  H137     1.0000 0.46557  0.95680  0.25035  Biso   1.000  H 
  C106     1.0000 0.44766  0.03906  0.20980  Biso   1.000  C 
  H138     1.0000 0.42522  0.06615  0.24996  Biso   1.000  H 
  C107     1.0000 0.42797  0.06814  0.14976  Biso   1.000  C 
  H139     1.0000 0.49916  0.03900  0.21583  Biso   1.000  H 
  H140     1.0000 0.41806  0.12138  0.15891  Biso   1.000  H 
  C108     1.0000 0.47814  0.06581  0.09835  Biso   1.000  C 
  H141     1.0000 0.38109  0.04735  0.13746  Biso   1.000  H 
  C109     1.0000 0.07727  0.95982  0.28574  Biso   1.000  C 
  H142     1.0000 0.09844  0.05764  0.26250  Biso   1.000  H 
  H143     1.0000 0.03043  0.96909  0.26515  Biso   1.000  H 
  C110     1.0000 0.07027  0.93863  0.35411  Biso   1.000  C 
  H144     1.0000 0.10054  0.92335  0.25510  Biso   1.000  H 
  H145     1.0000 0.11248  0.95209  0.38277  Biso   1.000  H 
  H146     1.0000 0.07098  0.88663  0.35319  Biso   1.000  H 
  C111     1.0000 0.00535  0.96335  0.38181  Biso   1.000  C 
  C112     1.0000 0.00044  0.03262  0.36821  Biso   1.000  C 
  H147     1.0000 0.01014  0.96514  0.43247  Biso   1.000  H 
  H148     1.0000 0.96145  0.93814  0.36293  Biso   1.000  H 
  H149     1.0000 0.52573  0.08134  0.11963  Biso   1.000  H 
  H150     1.0000 0.46567  0.10135  0.06139  Biso   1.000  H 
  H151     1.0000 0.48208  0.01857  0.07718  Biso   1.000  H 
  H152     1.0000 0.04839  0.04666  0.38289  Biso   1.000  H 
  H153     1.0000 0.96763  0.06731  0.39074  Biso   1.000  H 
  H154     1.0000 0.99168  0.03848  0.31781  Biso   1.000  H 
  C113     1.0000 0.34640  0.50000  0.84640  Biso   1.000  C 
  O53      1.0000 0.32954  0.50000  0.90471  Biso   1.000  O 
  O54      1.0000 0.40471  0.50000  0.82954  Biso   1.000  O 
  C114     1.0000 0.29500  0.50000  0.79500  Biso   1.000  C 
  C115     1.0000 0.31563  0.50000  0.73249  Biso   1.000  C 
  N15      1.0000 0.37039  0.45043  0.71802  Biso   1.000  N 
  H155     1.0000 0.27872  0.50000  0.63051  Biso   1.000  H 
  C116     1.0000 0.26751  0.50000  0.68442  Biso   1.000  C 
  C117     1.0000 0.20500  0.50000  0.70500  Biso   1.000  C 
  C118     1.0000 0.18442  0.50000  0.76751  Biso   1.000  C 
  C119     1.0000 0.23249  0.50000  0.81563  Biso   1.000  C 
  H156     1.0000 0.22128  0.50000  0.86954  Biso   1.000  H 
  N16      1.0000 0.11651  0.51832  0.78649  Biso   1.000  N 
  O55      1.0000 0.09530  0.50000  0.67046  Biso   1.000  O 
  C120     1.0000 0.15360  0.50000  0.65360  Biso   1.000  C 
  O56      1.0000 0.17046  0.50000  0.59529  Biso   1.000  O 
  H157     1.0000 0.36875  0.41180  0.75057  Biso   1.000  H 
  C121     1.0000 0.43637  0.46850  0.70497  Biso   1.000  C 
  H158     1.0000 0.45239  0.45345  0.66088  Biso   1.000  H 
  H159     1.0000 0.46555  0.45185  0.74263  Biso   1.000  H 
  C122     1.0000 0.44891  0.53808  0.71009  Biso   1.000  C 
  H160     1.0000 0.42296  0.55879  0.74692  Biso   1.000  H 
  C123     1.0000 0.43008  0.57303  0.65405  Biso   1.000  C 
  H161     1.0000 0.49884  0.53989  0.72058  Biso   1.000  H 
  H162     1.0000 0.41755  0.62169  0.66777  Biso   1.000  H 
  C124     1.0000 0.47925  0.57209  0.59805  Biso   1.000  C 
  H163     1.0000 0.38393  0.55257  0.64076  Biso   1.000  H 
  C125     1.0000 0.08185  0.45584  0.78312  Biso   1.000  C 
  H164     1.0000 0.09233  0.55402  0.76038  Biso   1.000  H 
  H165     1.0000 0.03438  0.46891  0.76057  Biso   1.000  H 
  C126     1.0000 0.07036  0.43799  0.85094  Biso   1.000  C 
  H166     1.0000 0.10286  0.42211  0.75160  Biso   1.000  H 
  H167     1.0000 0.11142  0.45860  0.87921  Biso   1.000  H 
  H168     1.0000 0.07520  0.38563  0.85546  Biso   1.000  H 
  C127     1.0000 0.00428  0.46490  0.87910  Biso   1.000  C 
  C128     1.0000 0.00006  0.53285  0.86052  Biso   1.000  C 
  H169     1.0000 0.00755  0.46272  0.93149  Biso   1.000  H 
  H170     1.0000 0.96005  0.44408  0.86143  Biso   1.000  H 
  H171     1.0000 0.47797  0.52573  0.57659  Biso   1.000  H 
  H172     1.0000 0.53111  0.58387  0.60839  Biso   1.000  H 
  H173     1.0000 0.46376  0.60644  0.56260  Biso   1.000  H 
  H174     1.0000 0.04520  0.55188  0.87266  Biso   1.000  H 
  H175     1.0000 0.96508  0.55837  0.89299  Biso   1.000  H 
  H176     1.0000 0.99069  0.54098  0.81163  Biso   1.000  H 
  C129     1.0000 0.84640  0.15360  0.00000  Biso   1.000  C 
  O57      1.0000 0.90471  0.17046  0.00000  Biso   1.000  O 
  O58      1.0000 0.82954  0.09529  0.00000  Biso   1.000  O 
  C130     1.0000 0.79500  0.20500  0.00000  Biso   1.000  C 
  C131     1.0000 0.73249  0.18437  0.00000  Biso   1.000  C 
  N17      1.0000 0.71207  0.11866  0.98233  Biso   1.000  N 
  H177     1.0000 0.63051  0.22128  0.00000  Biso   1.000  H 
  C132     1.0000 0.68442  0.23249  0.00000  Biso   1.000  C 
  C133     1.0000 0.70500  0.29500  0.00000  Biso   1.000  C 
  C134     1.0000 0.76751  0.31558  0.00000  Biso   1.000  C 
  C135     1.0000 0.81563  0.26751  0.00000  Biso   1.000  C 
  H178     1.0000 0.86954  0.27872  0.00000  Biso   1.000  H 
  N18      1.0000 0.78480  0.37973  0.02407  Biso   1.000  N 
  O59      1.0000 0.67046  0.40470  0.00000  Biso   1.000  O 
  C136     1.0000 0.65360  0.34640  0.00000  Biso   1.000  C 
  O60      1.0000 0.59529  0.32954  0.00000  Biso   1.000  O 
  H179     1.0000 0.72818  0.08793  0.02033  Biso   1.000  H 
  C137     1.0000 0.72533  0.10601  0.91556  Biso   1.000  C 
  H180     1.0000 0.68096  0.08479  0.89114  Biso   1.000  H 
  H181     1.0000 0.76308  0.07373  0.91744  Biso   1.000  H 
  C138     1.0000 0.75034  0.16167  0.87096  Biso   1.000  C 
  H182     1.0000 0.79266  0.18573  0.88639  Biso   1.000  H 
  C139     1.0000 0.70276  0.21583  0.85323  Biso   1.000  C 
  H183     1.0000 0.77048  0.13725  0.82418  Biso   1.000  H 
  H184     1.0000 0.66843  0.23983  0.88544  Biso   1.000  H 
  C140     1.0000 0.66426  0.18556  0.79860  Biso   1.000  C 
  H185     1.0000 0.73680  0.25318  0.83280  Biso   1.000  H 
  C141     1.0000 0.76871  0.38508  0.09364  Biso   1.000  C 
  H186     1.0000 0.77628  0.41625  0.98864  Biso   1.000  H 
  H187     1.0000 0.80897  0.40223  0.12056  Biso   1.000  H 
  C142     1.0000 0.73703  0.32974  0.13066  Biso   1.000  C 
  H188     1.0000 0.73163  0.41943  0.09548  Biso   1.000  H 
  H189     1.0000 0.69296  0.30443  0.11179  Biso   1.000  H 
  H190     1.0000 0.71818  0.35499  0.17089  Biso   1.000  H 
  C143     1.0000 0.78453  0.27958  0.15478  Biso   1.000  C 
  C144     1.0000 0.83643  0.30151  0.19829  Biso   1.000  C 
  H191     1.0000 0.80887  0.25889  0.11357  Biso   1.000  H 
  H192     1.0000 0.75936  0.24018  0.17942  Biso   1.000  H 
  H193     1.0000 0.69375  0.18585  0.75691  Biso   1.000  H 
  H194     1.0000 0.62309  0.21477  0.78658  Biso   1.000  H 
  H195     1.0000 0.64611  0.13943  0.80689  Biso   1.000  H 
  H196     1.0000 0.87019  0.26249  0.20692  Biso   1.000  H 
  H197     1.0000 0.82353  0.32065  0.24447  Biso   1.000  H 
  H198     1.0000 0.86387  0.33719  0.17234  Biso   1.000  H 
  C145     1.0000 0.84640  0.65360  0.50000  Biso   1.000  C 
  O61      1.0000 0.90471  0.67046  0.50000  Biso   1.000  O 
  O62      1.0000 0.82954  0.59529  0.50000  Biso   1.000  O 
  C146     1.0000 0.79500  0.70500  0.50000  Biso   1.000  C 
  C147     1.0000 0.73249  0.68437  0.50000  Biso   1.000  C 
  N19      1.0000 0.71409  0.62129  0.46890  Biso   1.000  N 
  H199     1.0000 0.63051  0.72128  0.50000  Biso   1.000  H 
  C148     1.0000 0.68442  0.73248  0.50000  Biso   1.000  C 
  C149     1.0000 0.70500  0.79499  0.50000  Biso   1.000  C 
  C150     1.0000 0.76751  0.81558  0.50000  Biso   1.000  C 
  C151     1.0000 0.81563  0.76751  0.50000  Biso   1.000  C 
  H200     1.0000 0.86954  0.77872  0.50000  Biso   1.000  H 
  N20      1.0000 0.78592  0.88053  0.52152  Biso   1.000  N 
  O63      1.0000 0.67046  0.90470  0.50000  Biso   1.000  O 
  C152     1.0000 0.65360  0.84639  0.50000  Biso   1.000  C 
  O64      1.0000 0.59529  0.82953  0.50000  Biso   1.000  O 
  H201     1.0000 0.71554  0.58070  0.49866  Biso   1.000  H 
  C153     1.0000 0.73572  0.61714  0.40142  Biso   1.000  C 
  H202     1.0000 0.69788  0.59543  0.37408  Biso   1.000  H 
  H203     1.0000 0.77865  0.58988  0.39935  Biso   1.000  H 
  C154     1.0000 0.75867  0.67647  0.36324  Biso   1.000  C 
  H204     1.0000 0.79373  0.70390  0.38698  Biso   1.000  H 
  C155     1.0000 0.70579  0.72383  0.33755  Biso   1.000  C 
  H205     1.0000 0.78234  0.65440  0.32060  Biso   1.000  H 
  H206     1.0000 0.67540  0.74332  0.37420  Biso   1.000  H 
  C156     1.0000 0.65963  0.69039  0.29234  Biso   1.000  C 
  H207     1.0000 0.73189  0.76195  0.31570  Biso   1.000  H 
  C157     1.0000 0.77242  0.88896  0.59111  Biso   1.000  C 
  H208     1.0000 0.77537  0.91583  0.48714  Biso   1.000  H 
  H209     1.0000 0.81584  0.90628  0.61249  Biso   1.000  H 
  C158     1.0000 0.74505  0.83382  0.63241  Biso   1.000  C 
  H210     1.0000 0.73631  0.92353  0.58954  Biso   1.000  H 
  H211     1.0000 0.69936  0.81392  0.61534  Biso   1.000  H 
  H212     1.0000 0.73262  0.85897  0.67456  Biso   1.000  H 
  C159     1.0000 0.79045  0.78045  0.65462  Biso   1.000  C 
  C160     1.0000 0.84436  0.80177  0.70021  Biso   1.000  C 
  H213     1.0000 0.81451  0.75728  0.61539  Biso   1.000  H 
  H214     1.0000 0.75914  0.74493  0.67699  Biso   1.000  H 
  H215     1.0000 0.68339  0.66219  0.25770  Biso   1.000  H 
  H216     1.0000 0.63175  0.72335  0.26573  Biso   1.000  H 
  H217     1.0000 0.62781  0.65580  0.32007  Biso   1.000  H 
  H218     1.0000 0.87765  0.76291  0.71279  Biso   1.000  H 
  H219     1.0000 0.82379  0.82039  0.74549  Biso   1.000  H 
  H220     1.0000 0.87368  0.83792  0.67563  Biso   1.000  H 
  C161     1.0000 0.34640  0.15360  0.50000  Biso   1.000  C 
  O65      1.0000 0.40471  0.17046  0.50000  Biso   1.000  O 
  O66      1.0000 0.32954  0.09529  0.50000  Biso   1.000  O 
  C162     1.0000 0.29500  0.20500  0.50000  Biso   1.000  C 
  C163     1.0000 0.23249  0.18437  0.50000  Biso   1.000  C 
  N21      1.0000 0.21593  0.11882  0.47442  Biso   1.000  N 
  H221     1.0000 0.13051  0.22128  0.50000  Biso   1.000  H 
  C164     1.0000 0.18442  0.23249  0.50000  Biso   1.000  C 
  C165     1.0000 0.20500  0.29500  0.50000  Biso   1.000  C 
  C166     1.0000 0.26751  0.31558  0.50000  Biso   1.000  C 
  C167     1.0000 0.31563  0.26751  0.50000  Biso   1.000  C 
  H222     1.0000 0.36954  0.27872  0.50000  Biso   1.000  H 
  N22      1.0000 0.28548  0.37954  0.51999  Biso   1.000  N 
  O67      1.0000 0.17046  0.40470  0.50000  Biso   1.000  O 
  C168     1.0000 0.15360  0.34640  0.50000  Biso   1.000  C 
  O68      1.0000 0.09529  0.32954  0.50000  Biso   1.000  O 
  H223     1.0000 0.21454  0.08308  0.50691  Biso   1.000  H 
  C169     1.0000 0.22984  0.11220  0.40460  Biso   1.000  C 
  H224     1.0000 0.18842  0.09322  0.37824  Biso   1.000  H 
  H225     1.0000 0.26828  0.08160  0.40162  Biso   1.000  H 
  C170     1.0000 0.25699  0.16962  0.36796  Biso   1.000  C 
  H226     1.0000 0.29444  0.19646  0.38944  Biso   1.000  H 
  C171     1.0000 0.20943  0.22167  0.34232  Biso   1.000  C 
  H227     1.0000 0.28268  0.14759  0.32642  Biso   1.000  H 
  H228     1.0000 0.17924  0.23951  0.38009  Biso   1.000  H 
  C172     1.0000 0.16504  0.19128  0.29501  Biso   1.000  C 
  H229     1.0000 0.23701  0.26516  0.32047  Biso   1.000  H 
  C173     1.0000 0.27272  0.38838  0.58941  Biso   1.000  C 
  H230     1.0000 0.27758  0.41466  0.48505  Biso   1.000  H 
  H231     1.0000 0.31456  0.41037  0.61261  Biso   1.000  H 
  C174     1.0000 0.24710  0.33559  0.63482  Biso   1.000  C 
  H232     1.0000 0.23439  0.42082  0.58944  Biso   1.000  H 
  H233     1.0000 0.20195  0.31288  0.61864  Biso   1.000  H 
  H234     1.0000 0.23438  0.36356  0.67791  Biso   1.000  H 
  C175     1.0000 0.29429  0.28192  0.65834  Biso   1.000  C 
  C176     1.0000 0.34801  0.30239  0.69837  Biso   1.000  C 
  H235     1.0000 0.31615  0.25828  0.61687  Biso   1.000  H 
  H236     1.0000 0.26290  0.24467  0.68151  Biso   1.000  H 
  H237     1.0000 0.19394  0.18317  0.25297  Biso   1.000  H 
  H238     1.0000 0.12454  0.22336  0.28542  Biso   1.000  H 
  H239     1.0000 0.13927  0.14676  0.31073  Biso   1.000  H 
  H240     1.0000 0.38048  0.26260  0.70436  Biso   1.000  H 
  H241     1.0000 0.32807  0.31733  0.74760  Biso   1.000  H 
  H242     1.0000 0.37674  0.34161  0.67643  Biso   1.000  H 
  C177     1.0000 0.34640  0.65360  0.00000  Biso   1.000  C 
  O69      1.0000 0.40471  0.67046  0.00000  Biso   1.000  O 
  O70      1.0000 0.32954  0.59529  0.00000  Biso   1.000  O 
  C178     1.0000 0.29500  0.70500  0.00000  Biso   1.000  C 
  C179     1.0000 0.23249  0.68437  0.00000  Biso   1.000  C 
  N23      1.0000 0.21563  0.62036  0.97225  Biso   1.000  N 
  H243     1.0000 0.13051  0.72128  0.00000  Biso   1.000  H 
  C180     1.0000 0.18442  0.73248  0.00000  Biso   1.000  C 
  C181     1.0000 0.20500  0.79499  0.00000  Biso   1.000  C 
  C182     1.0000 0.26751  0.81558  0.00000  Biso   1.000  C 
  C183     1.0000 0.31563  0.76751  0.00000  Biso   1.000  C 
  H244     1.0000 0.36954  0.77872  0.00000  Biso   1.000  H 
  N24      1.0000 0.28842  0.87974  0.02252  Biso   1.000  N 
  O71      1.0000 0.17046  0.90470  0.00000  Biso   1.000  O 
  C184     1.0000 0.15360  0.84639  0.00000  Biso   1.000  C 
  O72      1.0000 0.09529  0.82953  0.00000  Biso   1.000  O 
  H245     1.0000 0.22513  0.58399  0.00585  Biso   1.000  H 
  C185     1.0000 0.22704  0.61536  0.90009  Biso   1.000  C 
  H246     1.0000 0.18623  0.59335  0.87311  Biso   1.000  H 
  H247     1.0000 0.26573  0.58382  0.89530  Biso   1.000  H 
  C186     1.0000 0.25120  0.67588  0.86427  Biso   1.000  C 
  H248     1.0000 0.28878  0.70431  0.88523  Biso   1.000  H 
  C187     1.0000 0.19935  0.71941  0.83975  Biso   1.000  C 
  H249     1.0000 0.27389  0.65710  0.82143  Biso   1.000  H 
  H250     1.0000 0.17190  0.74451  0.87834  Biso   1.000  H 
  C188     1.0000 0.15767  0.68450  0.78786  Biso   1.000  C 
  H251     1.0000 0.22773  0.75468  0.81259  Biso   1.000  H 
  C189     1.0000 0.27188  0.88715  0.09077  Biso   1.000  C 
  H252     1.0000 0.27700  0.91865  0.99219  Biso   1.000  H 
  H253     1.0000 0.31442  0.90605  0.11692  Biso   1.000  H 
  C190     1.0000 0.24902  0.83037  0.13356  Biso   1.000  C 
  H254     1.0000 0.23430  0.92029  0.09344  Biso   1.000  H 
  H255     1.0000 0.20753  0.80097  0.11576  Biso   1.000  H 
  H256     1.0000 0.22978  0.85599  0.17458  Biso   1.000  H 
  C191     1.0000 0.29971  0.78406  0.15880  Biso   1.000  C 
  C192     1.0000 0.34678  0.81012  0.20570  Biso   1.000  C 
  H257     1.0000 0.32610  0.76258  0.11927  Biso   1.000  H 
  H258     1.0000 0.27262  0.74715  0.18438  Biso   1.000  H 
  H259     1.0000 0.18850  0.66396  0.74939  Biso   1.000  H 
  H260     1.0000 0.12491  0.71934  0.76695  Biso   1.000  H 
  H261     1.0000 0.12760  0.64294  0.80514  Biso   1.000  H 
  H262     1.0000 0.37441  0.76801  0.22379  Biso   1.000  H 
  H263     1.0000 0.32018  0.83403  0.24609  Biso   1.000  H 
  H264     1.0000 0.37972  0.84488  0.18098  Biso   1.000  H 
  C193     1.0000 0.84640  0.84640  0.00000  Biso   1.000  C 
  O73      1.0000 0.90471  0.82954  0.00000  Biso   1.000  O 
  O74      1.0000 0.82954  0.90471  0.00000  Biso   1.000  O 
  C194     1.0000 0.79500  0.79500  0.00000  Biso   1.000  C 
  C195     1.0000 0.73249  0.81563  0.00000  Biso   1.000  C 
  N25      1.0000 0.71716  0.87186  0.95321  Biso   1.000  N 
  H265     1.0000 0.63051  0.77872  0.00000  Biso   1.000  H 
  C196     1.0000 0.68442  0.76752  0.00000  Biso   1.000  C 
  C197     1.0000 0.70500  0.70501  0.00000  Biso   1.000  C 
  C198     1.0000 0.76751  0.68442  0.00000  Biso   1.000  C 
  C199     1.0000 0.81563  0.73249  0.00000  Biso   1.000  C 
  H266     1.0000 0.86954  0.72128  0.00000  Biso   1.000  H 
  N26      1.0000 0.78389  0.61650  0.01307  Biso   1.000  N 
  O75      1.0000 0.67046  0.59530  0.00000  Biso   1.000  O 
  C200     1.0000 0.65360  0.65361  0.00000  Biso   1.000  C 
  O76      1.0000 0.59529  0.67047  0.00000  Biso   1.000  O 
  H267     1.0000 0.75428  0.87403  0.91764  Biso   1.000  H 
  C201     1.0000 0.70278  0.93852  0.97175  Biso   1.000  C 
  H268     1.0000 0.65694  0.95919  0.95786  Biso   1.000  H 
  H269     1.0000 0.74087  0.97378  0.96071  Biso   1.000  H 
  C202     1.0000 0.70381  0.94578  0.04063  Biso   1.000  C 
  H270     1.0000 0.74406  0.92540  0.06641  Biso   1.000  H 
  C203     1.0000 0.64535  0.92066  0.07092  Biso   1.000  C 
  H271     1.0000 0.69955  0.99918  0.04179  Biso   1.000  H 
  H272     1.0000 0.65349  0.91605  0.12141  Biso   1.000  H 
  C204     1.0000 0.58901  0.96280  0.06714  Biso   1.000  C 
  H273     1.0000 0.63992  0.87314  0.04871  Biso   1.000  H 
  C205     1.0000 0.78163  0.58040  0.95322  Biso   1.000  C 
  H274     1.0000 0.76183  0.59885  0.05540  Biso   1.000  H 
  H275     1.0000 0.75798  0.53535  0.96248  Biso   1.000  H 
  C206     1.0000 0.84826  0.56588  0.93689  Biso   1.000  C 
  H276     1.0000 0.75657  0.60522  0.91433  Biso   1.000  H 
  H277     1.0000 0.87668  0.60738  0.95410  Biso   1.000  H 
  H278     1.0000 0.85652  0.56646  0.88564  Biso   1.000  H 
  C207     1.0000 0.87140  0.50331  0.96694  Biso   1.000  C 
  C208     1.0000 0.85765  0.49930  0.03693  Biso   1.000  C 
  H279     1.0000 0.92635  0.50432  0.96873  Biso   1.000  H 
  H280     1.0000 0.85514  0.46199  0.93733  Biso   1.000  H 
  H281     1.0000 0.57176  0.97066  0.01830  Biso   1.000  H 
  H282     1.0000 0.59829  0.00966  0.08928  Biso   1.000  H 
  H283     1.0000 0.55079  0.93887  0.09664  Biso   1.000  H 
  H284     1.0000 0.86510  0.54657  0.05103  Biso   1.000  H 
  H285     1.0000 0.88964  0.46609  0.06536  Biso   1.000  H 
  H286     1.0000 0.80749  0.49045  0.04442  Biso   1.000  H 
  C209     1.0000 0.84640  0.34640  0.50000  Biso   1.000  C 
  O77      1.0000 0.90471  0.32954  0.50000  Biso   1.000  O 
  O78      1.0000 0.82954  0.40471  0.50000  Biso   1.000  O 
  C210     1.0000 0.79500  0.29500  0.50000  Biso   1.000  C 
  C211     1.0000 0.73249  0.31563  0.50000  Biso   1.000  C 
  N27      1.0000 0.71772  0.36951  0.45022  Biso   1.000  N 
  H287     1.0000 0.63051  0.27872  0.50000  Biso   1.000  H 
  C212     1.0000 0.68442  0.26751  0.50000  Biso   1.000  C 
  C213     1.0000 0.70500  0.20500  0.50000  Biso   1.000  C 
  C214     1.0000 0.76751  0.18442  0.50000  Biso   1.000  C 
  C215     1.0000 0.81563  0.23249  0.50000  Biso   1.000  C 
  H288     1.0000 0.86954  0.22128  0.50000  Biso   1.000  H 
  N28      1.0000 0.78609  0.11582  0.51625  Biso   1.000  N 
  O79      1.0000 0.67046  0.09530  0.50000  Biso   1.000  O 
  C216     1.0000 0.65360  0.15360  0.50000  Biso   1.000  C 
  O80      1.0000 0.59529  0.17046  0.50000  Biso   1.000  O 
  H289     1.0000 0.75378  0.37144  0.41336  Biso   1.000  H 
  C217     1.0000 0.70955  0.43480  0.46942  Biso   1.000  C 
  H290     1.0000 0.66485  0.45641  0.45400  Biso   1.000  H 
  H291     1.0000 0.74869  0.46350  0.45294  Biso   1.000  H 
  C218     1.0000 0.71456  0.44191  0.53855  Biso   1.000  C 
  H292     1.0000 0.75133  0.41500  0.56742  Biso   1.000  H 
  C219     1.0000 0.65441  0.42206  0.57065  Biso   1.000  C 
  H293     1.0000 0.72476  0.49504  0.53858  Biso   1.000  H 
  H294     1.0000 0.66265  0.41551  0.62052  Biso   1.000  H 
  C220     1.0000 0.60292  0.47388  0.56620  Biso   1.000  C 
  H295     1.0000 0.63809  0.37660  0.55101  Biso   1.000  H 
  C221     1.0000 0.78194  0.07594  0.45816  Biso   1.000  C 
  H296     1.0000 0.76501  0.09791  0.55841  Biso   1.000  H 
  H297     1.0000 0.75918  0.03020  0.47096  Biso   1.000  H 
  C222     1.0000 0.84882  0.06495  0.43353  Biso   1.000  C 
  H298     1.0000 0.75101  0.09738  0.42069  Biso   1.000  H 
  H299     1.0000 0.87664  0.10772  0.44917  Biso   1.000  H 
  H300     1.0000 0.85119  0.06512  0.38208  Biso   1.000  H 
  C223     1.0000 0.88169  0.00578  0.46254  Biso   1.000  C 
  C224     1.0000 0.86664  0.00466  0.53077  Biso   1.000  C 
  H301     1.0000 0.93444  0.01727  0.46453  Biso   1.000  H 
  H302     1.0000 0.87044  0.95849  0.43861  Biso   1.000  H 
  H303     1.0000 0.57846  0.47746  0.51971  Biso   1.000  H 
  H304     1.0000 0.61748  0.52365  0.58208  Biso   1.000  H 
  H305     1.0000 0.56650  0.45704  0.60318  Biso   1.000  H 
  H306     1.0000 0.87613  0.05342  0.54850  Biso   1.000  H 
  H307     1.0000 0.89174  0.97091  0.56018  Biso   1.000  H 
  H308     1.0000 0.81646  0.99448  0.53766  Biso   1.000  H 
  C225     1.0000 0.34640  0.84640  0.50000  Biso   1.000  C 
  O81      1.0000 0.40471  0.82954  0.50000  Biso   1.000  O 
  O82      1.0000 0.32954  0.90471  0.50000  Biso   1.000  O 
  C226     1.0000 0.29500  0.79500  0.50000  Biso   1.000  C 
  C227     1.0000 0.23249  0.81563  0.50000  Biso   1.000  C 
  N29      1.0000 0.21937  0.86904  0.44948  Biso   1.000  N 
  H309     1.0000 0.13051  0.77872  0.50000  Biso   1.000  H 
  C228     1.0000 0.18442  0.76752  0.50000  Biso   1.000  C 
  C229     1.0000 0.20500  0.70501  0.50000  Biso   1.000  C 
  C230     1.0000 0.26751  0.68442  0.50000  Biso   1.000  C 
  C231     1.0000 0.31563  0.73249  0.50000  Biso   1.000  C 
  H310     1.0000 0.36954  0.72128  0.50000  Biso   1.000  H 
  N30      1.0000 0.28449  0.61599  0.51432  Biso   1.000  N 
  O83      1.0000 0.17046  0.59530  0.50000  Biso   1.000  O 
  C232     1.0000 0.15360  0.65361  0.50000  Biso   1.000  C 
  O84      1.0000 0.09529  0.67047  0.50000  Biso   1.000  O 
  H311     1.0000 0.25647  0.87004  0.41320  Biso   1.000  H 
  C233     1.0000 0.20944  0.93390  0.47278  Biso   1.000  C 
  H312     1.0000 0.16760  0.96081  0.45401  Biso   1.000  H 
  H313     1.0000 0.25057  0.96392  0.45659  Biso   1.000  H 
  C234     1.0000 0.21051  0.94087  0.54192  Biso   1.000  C 
  H314     1.0000 0.25043  0.91990  0.56891  Biso   1.000  H 
  C235     1.0000 0.15288  0.92221  0.57238  Biso   1.000  C 
  H315     1.0000 0.21703  0.99303  0.53959  Biso   1.000  H 
  H316     1.0000 0.17017  0.91655  0.62174  Biso   1.000  H 
  C236     1.0000 0.10488  0.97510  0.57560  Biso   1.000  C 
  H317     1.0000 0.13451  0.87498  0.56416  Biso   1.000  H 
  C237     1.0000 0.28108  0.57863  0.45737  Biso   1.000  C 
  H318     1.0000 0.26663  0.59476  0.55517  Biso   1.000  H 
  H319     1.0000 0.26441  0.52956  0.47088  Biso   1.000  H 
  C238     1.0000 0.34900  0.57237  0.43523  Biso   1.000  C 
  H320     1.0000 0.24804  0.59960  0.42244  Biso   1.000  H 
  H321     1.0000 0.37900  0.61202  0.45391  Biso   1.000  H 
  H322     1.0000 0.35202  0.57609  0.38523  Biso   1.000  H 
  C239     1.0000 0.37780  0.51072  0.45886  Biso   1.000  C 
  C240     1.0000 0.36664  0.50272  0.52860  Biso   1.000  C 
  H323     1.0000 0.42909  0.51685  0.45612  Biso   1.000  H 
  H324     1.0000 0.36541  0.46789  0.42944  Biso   1.000  H 
  H325     1.0000 0.12889  0.02349  0.57786  Biso   1.000  H 
  H326     1.0000 0.07003  0.97005  0.61785  Biso   1.000  H 
  H327     1.0000 0.07432  0.97478  0.52929  Biso   1.000  H 
  H328     1.0000 0.37297  0.54915  0.54601  Biso   1.000  H 
  H329     1.0000 0.39739  0.46890  0.55585  Biso   1.000  H 
  H330     1.0000 0.31987  0.48955  0.54068  Biso   1.000  H 
  C241     1.0000 0.34640  0.34640  0.00000  Biso   1.000  C 
  O85      1.0000 0.40471  0.32954  0.00000  Biso   1.000  O 
  O86      1.0000 0.32954  0.40471  0.00000  Biso   1.000  O 
  C242     1.0000 0.29500  0.29500  0.00000  Biso   1.000  C 
  C243     1.0000 0.23249  0.31563  0.00000  Biso   1.000  C 
  N31      1.0000 0.22044  0.37058  0.95284  Biso   1.000  N 
  H331     1.0000 0.13051  0.27872  0.00000  Biso   1.000  H 
  C244     1.0000 0.18442  0.26751  0.00000  Biso   1.000  C 
  C245     1.0000 0.20500  0.20500  0.00000  Biso   1.000  C 
  C246     1.0000 0.26751  0.18442  0.00000  Biso   1.000  C 
  C247     1.0000 0.31563  0.23249  0.00000  Biso   1.000  C 
  H332     1.0000 0.36954  0.22128  0.00000  Biso   1.000  H 
  N32      1.0000 0.28889  0.11775  0.01262  Biso   1.000  N 
  O87      1.0000 0.17046  0.09530  0.00000  Biso   1.000  O 
  C248     1.0000 0.15360  0.15360  0.00000  Biso   1.000  C 
  O88      1.0000 0.09529  0.17046  0.00000  Biso   1.000  O 
  H333     1.0000 0.25794  0.38324  0.92361  Biso   1.000  H 
  C249     1.0000 0.17969  0.41974  0.97530  Biso   1.000  C 
  H334     1.0000 0.13277  0.40273  0.96775  Biso   1.000  H 
  H335     1.0000 0.18286  0.46265  0.94647  Biso   1.000  H 
  C250     1.0000 0.19537  0.43717  0.04422  Biso   1.000  C 
  H336     1.0000 0.23602  0.41083  0.06499  Biso   1.000  H 
  C251     1.0000 0.13727  0.42603  0.08334  Biso   1.000  C 
  H337     1.0000 0.20886  0.48654  0.03737  Biso   1.000  H 
  H338     1.0000 0.15500  0.41849  0.12996  Biso   1.000  H 
  C252     1.0000 0.09178  0.47989  0.08628  Biso   1.000  C 
  H339     1.0000 0.11867  0.38210  0.06793  Biso   1.000  H 
  C253     1.0000 0.28046  0.08040  0.95525  Biso   1.000  C 
  H340     1.0000 0.26749  0.09860  0.05284  Biso   1.000  H 
  H341     1.0000 0.25709  0.03650  0.96776  Biso   1.000  H 
  C254     1.0000 0.34853  0.06920  0.93133  Biso   1.000  C 
  H342     1.0000 0.24678  0.10190  0.91988  Biso   1.000  H 
  H343     1.0000 0.37958  0.10957  0.94800  Biso   1.000  H 
  H344     1.0000 0.34804  0.06778  0.88120  Biso   1.000  H 
  C255     1.0000 0.37440  0.00667  0.95964  Biso   1.000  C 
  C256     1.0000 0.36280  0.00284  0.03052  Biso   1.000  C 
  H345     1.0000 0.42592  0.00784  0.95976  Biso   1.000  H 
  H346     1.0000 0.35702  0.96170  0.93690  Biso   1.000  H 
  H347     1.0000 0.07692  0.49145  0.03860  Biso   1.000  H 
  H348     1.0000 0.11444  0.52501  0.10738  Biso   1.000  H 
  H349     1.0000 0.04944  0.46383  0.11197  Biso   1.000  H 
  H350     1.0000 0.37506  0.05275  0.04421  Biso   1.000  H 
  H351     1.0000 0.38877  0.96512  0.06026  Biso   1.000  H 
  H352     1.0000 0.31202  0.99686  0.04000  Biso   1.000  H 
  C257     1.0000 0.00000  0.84640  0.15360  Biso   1.000  C 
  O89      1.0000 0.00000  0.90471  0.17046  Biso   1.000  O 
  O90      1.0000 0.00000  0.82954  0.09529  Biso   1.000  O 
  C258     1.0000 0.00000  0.79500  0.20500  Biso   1.000  C 
  C259     1.0000 0.00000  0.73249  0.18437  Biso   1.000  C 
  N33      1.0000 0.97241  0.71309  0.12073  Biso   1.000  N 
  H353     1.0000 0.00000  0.63051  0.22128  Biso   1.000  H 
  C260     1.0000 0.00000  0.68442  0.23249  Biso   1.000  C 
  C261     1.0000 0.00000  0.70500  0.29500  Biso   1.000  C 
  C262     1.0000 0.00000  0.76751  0.31558  Biso   1.000  C 
  C263     1.0000 0.00000  0.81563  0.26751  Biso   1.000  C 
  H354     1.0000 0.00000  0.86954  0.27872  Biso   1.000  H 
  N34      1.0000 0.02954  0.78590  0.37595  Biso   1.000  N 
  O91      1.0000 0.00000  0.67046  0.40470  Biso   1.000  O 
  C264     1.0000 0.00000  0.65360  0.34640  Biso   1.000  C 
  O92      1.0000 0.00000  0.59529  0.32954  Biso   1.000  O 
  H355     1.0000 0.00030  0.72578  0.08242  Biso   1.000  H 
  C265     1.0000 0.90522  0.73094  0.11390  Biso   1.000  C 
  H356     1.0000 0.87806  0.69010  0.09441  Biso   1.000  H 
  H357     1.0000 0.90370  0.77002  0.08269  Biso   1.000  H 
  C266     1.0000 0.86382  0.75884  0.17157  Biso   1.000  C 
  H358     1.0000 0.88598  0.79991  0.19524  Biso   1.000  H 
  C267     1.0000 0.84331  0.71201  0.22309  Biso   1.000  C 
  H359     1.0000 0.81844  0.77589  0.15010  Biso   1.000  H 
  H360     1.0000 0.88473  0.68335  0.23935  Biso   1.000  H 
  C268     1.0000 0.79790  0.66219  0.19796  Biso   1.000  C 
  H361     1.0000 0.82530  0.74228  0.26325  Biso   1.000  H 
  C269     1.0000 0.09855  0.76795  0.37722  Biso   1.000  C 
  H362     1.0000 0.00335  0.77244  0.41698  Biso   1.000  H 
  H363     1.0000 0.12408  0.80930  0.39895  Biso   1.000  H 
  C270     1.0000 0.13553  0.74871  0.31767  Biso   1.000  C 
  H364     1.0000 0.10186  0.72847  0.41162  Biso   1.000  H 
  H365     1.0000 0.11241  0.71372  0.28544  Biso   1.000  H 
  H366     1.0000 0.17363  0.72061  0.33656  Biso   1.000  H 
  C271     1.0000 0.16186  0.80127  0.27587  Biso   1.000  C 
  C272     1.0000 0.20567  0.85175  0.30438  Biso   1.000  C 
  H367     1.0000 0.12281  0.82802  0.25382  Biso   1.000  H 
  H368     1.0000 0.18571  0.77621  0.23523  Biso   1.000  H 
  H369     1.0000 0.75055  0.68555  0.19457  Biso   1.000  H 
  H370     1.0000 0.79686  0.61836  0.22873  Biso   1.000  H 
  H371     1.0000 0.80609  0.64531  0.14785  Biso   1.000  H 
  H372     1.0000 0.22162  0.88323  0.26619  Biso   1.000  H 
  H373     1.0000 0.24873  0.82907  0.32540  Biso   1.000  H 
  H374     1.0000 0.18039  0.88059  0.34221  Biso   1.000  H 
  C273     1.0000 0.00000  0.34640  0.65360  Biso   1.000  C 
  O93      1.0000 0.00000  0.40471  0.67046  Biso   1.000  O 
  O94      1.0000 0.00000  0.32954  0.59529  Biso   1.000  O 
  C274     1.0000 0.00000  0.29500  0.70500  Biso   1.000  C 
  C275     1.0000 0.00000  0.23249  0.68437  Biso   1.000  C 
  N35      1.0000 0.96899  0.21447  0.62192  Biso   1.000  N 
  H375     1.0000 0.00000  0.13051  0.72128  Biso   1.000  H 
  C276     1.0000 0.00000  0.18442  0.73248  Biso   1.000  C 
  C277     1.0000 0.00000  0.20500  0.79499  Biso   1.000  C 
  C278     1.0000 0.00000  0.26751  0.81558  Biso   1.000  C 
  C279     1.0000 0.00000  0.31563  0.76751  Biso   1.000  C 
  H376     1.0000 0.00000  0.36954  0.77872  Biso   1.000  H 
  N36      1.0000 0.03622  0.28500  0.87554  Biso   1.000  N 
  O95      1.0000 0.00000  0.17046  0.90470  Biso   1.000  O 
  C280     1.0000 0.00000  0.15360  0.84639  Biso   1.000  C 
  O96      1.0000 0.00000  0.09529  0.82953  Biso   1.000  O 
  H377     1.0000 0.99958  0.21144  0.58174  Biso   1.000  H 
  C281     1.0000 0.90011  0.22925  0.61753  Biso   1.000  C 
  H378     1.0000 0.87306  0.18575  0.59534  Biso   1.000  H 
  H379     1.0000 0.89580  0.27093  0.58977  Biso   1.000  H 
  C282     1.0000 0.86305  0.24960  0.67983  Biso   1.000  C 
  H380     1.0000 0.88690  0.28596  0.71166  Biso   1.000  H 
  C283     1.0000 0.83451  0.20014  0.72364  Biso   1.000  C 
  H381     1.0000 0.82070  0.27560  0.65957  Biso   1.000  H 
  H382     1.0000 0.86900  0.16753  0.74464  Biso   1.000  H 
  C284     1.0000 0.78519  0.15513  0.68932  Biso   1.000  C 
  H383     1.0000 0.81247  0.22601  0.76483  Biso   1.000  H 
  C285     1.0000 0.10398  0.25921  0.87383  Biso   1.000  C 
  H384     1.0000 0.01396  0.27169  0.92002  Biso   1.000  H 
  H385     1.0000 0.13376  0.29877  0.89551  Biso   1.000  H 
  C286     1.0000 0.13732  0.24536  0.80795  Biso   1.000  C 
  H386     1.0000 0.10669  0.21587  0.90164  Biso   1.000  H 
  H387     1.0000 0.10931  0.21979  0.77271  Biso   1.000  H 
  H388     1.0000 0.17303  0.21151  0.81994  Biso   1.000  H 
  C287     1.0000 0.16269  0.30300  0.77244  Biso   1.000  C 
  C288     1.0000 0.21124  0.34460  0.80536  Biso   1.000  C 
  H389     1.0000 0.12175  0.33114  0.75966  Biso   1.000  H 
  H390     1.0000 0.18226  0.28801  0.72773  Biso   1.000  H 
  H391     1.0000 0.74832  0.17698  0.66266  Biso   1.000  H 
  H392     1.0000 0.76222  0.12182  0.72486  Biso   1.000  H 
  H393     1.0000 0.81315  0.12602  0.65518  Biso   1.000  H 
  H394     1.0000 0.23478  0.37762  0.77319  Biso   1.000  H 
  H395     1.0000 0.24924  0.31884  0.83328  Biso   1.000  H 
  H396     1.0000 0.18224  0.37450  0.83908  Biso   1.000  H 
  C289     1.0000 0.50000  0.84640  0.65360  Biso   1.000  C 
  O97      1.0000 0.50000  0.90471  0.67046  Biso   1.000  O 
  O98      1.0000 0.50000  0.82954  0.59529  Biso   1.000  O 
  C290     1.0000 0.50000  0.79500  0.70500  Biso   1.000  C 
  C291     1.0000 0.50000  0.73249  0.68437  Biso   1.000  C 
  N37      1.0000 0.47247  0.71387  0.62122  Biso   1.000  N 
  H397     1.0000 0.50000  0.63051  0.72128  Biso   1.000  H 
  C292     1.0000 0.50000  0.68442  0.73248  Biso   1.000  C 
  C293     1.0000 0.50000  0.70500  0.79499  Biso   1.000  C 
  C294     1.0000 0.50000  0.76751  0.81558  Biso   1.000  C 
  C295     1.0000 0.50000  0.81563  0.76751  Biso   1.000  C 
  H398     1.0000 0.50000  0.86954  0.77872  Biso   1.000  H 
  N38      1.0000 0.52272  0.78612  0.87966  Biso   1.000  N 
  O99      1.0000 0.50000  0.67046  0.90470  Biso   1.000  O 
  C296     1.0000 0.50000  0.65360  0.84639  Biso   1.000  C 
  O100     1.0000 0.50000  0.59529  0.82953  Biso   1.000  O 
  H399     1.0000 0.50389  0.72670  0.58521  Biso   1.000  H 
  C297     1.0000 0.40478  0.72876  0.61323  Biso   1.000  C 
  H400     1.0000 0.37910  0.68776  0.59074  Biso   1.000  H 
  H401     1.0000 0.40251  0.76821  0.58285  Biso   1.000  H 
  C298     1.0000 0.36234  0.74815  0.66637  Biso   1.000  C 
  H402     1.0000 0.38276  0.78848  0.69339  Biso   1.000  H 
  C299     1.0000 0.33253  0.70247  0.71643  Biso   1.000  C 
  H403     1.0000 0.31661  0.76656  0.63961  Biso   1.000  H 
  H404     1.0000 0.36947  0.67723  0.74531  Biso   1.000  H 
  C300     1.0000 0.28841  0.65185  0.68667  Biso   1.000  C 
  H405     1.0000 0.29962  0.72846  0.74918  Biso   1.000  H 
  C301     1.0000 0.59256  0.76689  0.88640  Biso   1.000  C 
  H406     1.0000 0.48609  0.77212  0.90987  Biso   1.000  H 
  H407     1.0000 0.62062  0.80744  0.90419  Biso   1.000  H 
  C302     1.0000 0.63164  0.73726  0.82841  Biso   1.000  C 
  H408     1.0000 0.59384  0.72918  0.91890  Biso   1.000  H 
  H409     1.0000 0.61423  0.69353  0.80109  Biso   1.000  H 
  H410     1.0000 0.67397  0.71841  0.85257  Biso   1.000  H 
  C303     1.0000 0.65697  0.78731  0.77656  Biso   1.000  C 
  C304     1.0000 0.70076  0.84105  0.79992  Biso   1.000  C 
  H411     1.0000 0.61786  0.80863  0.75015  Biso   1.000  H 
  H412     1.0000 0.68342  0.76202  0.74026  Biso   1.000  H 
  H413     1.0000 0.24529  0.67045  0.66867  Biso   1.000  H 
  H414     1.0000 0.27862  0.61675  0.72508  Biso   1.000  H 
  H415     1.0000 0.30901  0.62710  0.64665  Biso   1.000  H 
  H416     1.0000 0.70808  0.87848  0.76433  Biso   1.000  H 
  H417     1.0000 0.74831  0.82159  0.81614  Biso   1.000  H 
  H418     1.0000 0.67578  0.86660  0.84001  Biso   1.000  H 
  C305     1.0000 0.50000  0.34640  0.15360  Biso   1.000  C 
  O101     1.0000 0.50000  0.40471  0.17046  Biso   1.000  O 
  O102     1.0000 0.50000  0.32954  0.09529  Biso   1.000  O 
  C306     1.0000 0.50000  0.29500  0.20500  Biso   1.000  C 
  C307     1.0000 0.50000  0.23249  0.18437  Biso   1.000  C 
  N39      1.0000 0.47046  0.21627  0.12247  Biso   1.000  N 
  H419     1.0000 0.50000  0.13051  0.22128  Biso   1.000  H 
  C308     1.0000 0.50000  0.18442  0.23249  Biso   1.000  C 
  C309     1.0000 0.50000  0.20500  0.29500  Biso   1.000  C 
  C310     1.0000 0.50000  0.26751  0.31558  Biso   1.000  C 
  C311     1.0000 0.50000  0.31563  0.26751  Biso   1.000  C 
  H420     1.0000 0.50000  0.36954  0.27872  Biso   1.000  H 
  N40      1.0000 0.52978  0.28432  0.37746  Biso   1.000  N 
  O103     1.0000 0.50000  0.17046  0.40470  Biso   1.000  O 
  C312     1.0000 0.50000  0.15360  0.34640  Biso   1.000  C 
  O104     1.0000 0.50000  0.09529  0.32954  Biso   1.000  O 
  H421     1.0000 0.50580  0.22295  0.08757  Biso   1.000  H 
  C313     1.0000 0.40294  0.23508  0.11496  Biso   1.000  C 
  H422     1.0000 0.38320  0.19412  0.09332  Biso   1.000  H 
  H423     1.0000 0.40453  0.27367  0.08431  Biso   1.000  H 
  C314     1.0000 0.36393  0.26396  0.17164  Biso   1.000  C 
  H424     1.0000 0.38650  0.30077  0.20118  Biso   1.000  H 
  C315     1.0000 0.33329  0.20899  0.21028  Biso   1.000  C 
  H425     1.0000 0.32323  0.28986  0.14488  Biso   1.000  H 
  H426     1.0000 0.37319  0.17995  0.22980  Biso   1.000  H 
  C316     1.0000 0.28791  0.16241  0.17096  Biso   1.000  C 
  H427     1.0000 0.30364  0.23085  0.24909  Biso   1.000  H 
  C317     1.0000 0.59812  0.26093  0.37971  Biso   1.000  C 
  H428     1.0000 0.50123  0.27002  0.41476  Biso   1.000  H 
  H429     1.0000 0.62823  0.30233  0.39623  Biso   1.000  H 
  C318     1.0000 0.63174  0.24024  0.31625  Biso   1.000  C 
  H430     1.0000 0.60220  0.22189  0.41217  Biso   1.000  H 
  H431     1.0000 0.61400  0.20074  0.28487  Biso   1.000  H 
  H432     1.0000 0.67612  0.21897  0.33573  Biso   1.000  H 
  C319     1.0000 0.65328  0.29572  0.27068  Biso   1.000  C 
  C320     1.0000 0.70098  0.33872  0.30073  Biso   1.000  C 
  H433     1.0000 0.61278  0.32235  0.25401  Biso   1.000  H 
  H434     1.0000 0.67658  0.27200  0.22803  Biso   1.000  H 
  H435     1.0000 0.24783  0.18766  0.15137  Biso   1.000  H 
  H436     1.0000 0.27017  0.12718  0.20379  Biso   1.000  H 
  H437     1.0000 0.31533  0.14151  0.13080  Biso   1.000  H 
  H438     1.0000 0.72698  0.36704  0.26385  Biso   1.000  H 
  H439     1.0000 0.73654  0.30773  0.32650  Biso   1.000  H 
  H440     1.0000 0.67611  0.37081  0.33594  Biso   1.000  H 
  C321     1.0000 0.00000  0.84640  0.84640  Biso   1.000  C 
  O105     1.0000 0.00000  0.90471  0.82954  Biso   1.000  O 
  O106     1.0000 0.00000  0.82954  0.90471  Biso   1.000  O 
  C322     1.0000 0.00000  0.79500  0.79500  Biso   1.000  C 
  C323     1.0000 0.00000  0.73249  0.81563  Biso   1.000  C 
  N41      1.0000 0.95358  0.71634  0.87169  Biso   1.000  N 
  H441     1.0000 0.00000  0.63051  0.77872  Biso   1.000  H 
  C324     1.0000 0.00000  0.68442  0.76752  Biso   1.000  C 
  C325     1.0000 0.00000  0.70500  0.70501  Biso   1.000  C 
  C326     1.0000 0.00000  0.76751  0.68442  Biso   1.000  C 
  C327     1.0000 0.00000  0.81563  0.73249  Biso   1.000  C 
  H442     1.0000 0.00000  0.86954  0.72128  Biso   1.000  H 
  N42      1.0000 0.01569  0.78482  0.61694  Biso   1.000  N 
  O107     1.0000 0.00000  0.67046  0.59530  Biso   1.000  O 
  C328     1.0000 0.00000  0.65360  0.65361  Biso   1.000  C 
  O108     1.0000 0.00000  0.59529  0.67047  Biso   1.000  O 
  H443     1.0000 0.91528  0.74872  0.87039  Biso   1.000  H 
  C329     1.0000 0.97103  0.70255  0.93763  Biso   1.000  C 
  H444     1.0000 0.95226  0.65818  0.95660  Biso   1.000  H 
  H445     1.0000 0.95674  0.74203  0.96818  Biso   1.000  H 
  C330     1.0000 0.03897  0.70201  0.95020  Biso   1.000  C 
  H446     1.0000 0.06469  0.74740  0.93380  Biso   1.000  H 
  C331     1.0000 0.07532  0.65000  0.92420  Biso   1.000  C 
  H447     1.0000 0.03880  0.69839  0.00251  Biso   1.000  H 
  H448     1.0000 0.12346  0.66619  0.91900  Biso   1.000  H 
  C332     1.0000 0.07740  0.59170  0.97196  Biso   1.000  C 
  H449     1.0000 0.05460  0.64371  0.87656  Biso   1.000  H 
  C333     1.0000 0.96013  0.78072  0.57700  Biso   1.000  C 
  H450     1.0000 0.05879  0.76690  0.59689  Biso   1.000  H 
  H451     1.0000 0.97405  0.75372  0.53350  Biso   1.000  H 
  C334     1.0000 0.93697  0.84686  0.56730  Biso   1.000  C 
  H452     1.0000 0.92074  0.75206  0.59585  Biso   1.000  H 
  H453     1.0000 0.95463  0.88022  0.60459  Biso   1.000  H 
  H454     1.0000 0.88666  0.84696  0.57453  Biso   1.000  H 
  C335     1.0000 0.95869  0.87481  0.50356  Biso   1.000  C 
  C336     1.0000 0.02932  0.86292  0.49548  Biso   1.000  C 
  H455     1.0000 0.95490  0.92563  0.50251  Biso   1.000  H 
  H456     1.0000 0.93312  0.85482  0.46237  Biso   1.000  H 
  H457     1.0000 0.09445  0.60874  0.01632  Biso   1.000  H 
  H458     1.0000 0.10781  0.55187  0.95392  Biso   1.000  H 
  H459     1.0000 0.02770  0.57188  0.98162  Biso   1.000  H 
  H460     1.0000 0.04424  0.88285  0.53961  Biso   1.000  H 
  H461     1.0000 0.06013  0.88442  0.45774  Biso   1.000  H 
  H462     1.0000 0.04254  0.81255  0.49714  Biso   1.000  H 
  C337     1.0000 0.00000  0.34640  0.34640  Biso   1.000  C 
  O109     1.0000 0.00000  0.40471  0.32954  Biso   1.000  O 
  O110     1.0000 0.00000  0.32954  0.40471  Biso   1.000  O 
  C338     1.0000 0.00000  0.29500  0.29500  Biso   1.000  C 
  C339     1.0000 0.00000  0.23249  0.31563  Biso   1.000  C 
  N43      1.0000 0.94944  0.21650  0.36854  Biso   1.000  N 
  H463     1.0000 0.00000  0.13051  0.27872  Biso   1.000  H 
  C340     1.0000 0.00000  0.18442  0.26751  Biso   1.000  C 
  C341     1.0000 0.00000  0.20500  0.20500  Biso   1.000  C 
  C342     1.0000 0.00000  0.26751  0.18442  Biso   1.000  C 
  C343     1.0000 0.00000  0.31563  0.23249  Biso   1.000  C 
  H464     1.0000 0.00000  0.36954  0.22128  Biso   1.000  H 
  N44      1.0000 0.01762  0.28787  0.11701  Biso   1.000  N 
  O111     1.0000 0.00000  0.17046  0.09530  Biso   1.000  O 
  C344     1.0000 0.00000  0.15360  0.15360  Biso   1.000  C 
  O112     1.0000 0.00000  0.09529  0.17046  Biso   1.000  O 
  H465     1.0000 0.91214  0.25166  0.36825  Biso   1.000  H 
  C345     1.0000 0.97063  0.20274  0.43211  Biso   1.000  C 
  H466     1.0000 0.95538  0.15632  0.44911  Biso   1.000  H 
  H467     1.0000 0.94942  0.24076  0.46042  Biso   1.000  H 
  C346     1.0000 0.04067  0.21206  0.44132  Biso   1.000  C 
  H468     1.0000 0.06776  0.25064  0.41506  Biso   1.000  H 
  C347     1.0000 0.07415  0.15221  0.42443  Biso   1.000  C 
  H469     1.0000 0.03987  0.22015  0.49357  Biso   1.000  H 
  H470     1.0000 0.12376  0.16179  0.41719  Biso   1.000  H 
  C348     1.0000 0.07281  0.10452  0.47862  Biso   1.000  C 
  H471     1.0000 0.05230  0.13895  0.37867  Biso   1.000  H 
  C349     1.0000 0.95987  0.28485  0.07694  Biso   1.000  C 
  H472     1.0000 0.05715  0.25928  0.10040  Biso   1.000  H 
  H473     1.0000 0.97288  0.25851  0.03272  Biso   1.000  H 
  C350     1.0000 0.93773  0.35037  0.05901  Biso   1.000  C 
  H474     1.0000 0.91923  0.26090  0.10358  Biso   1.000  H 
  H475     1.0000 0.96563  0.38658  0.08824  Biso   1.000  H 
  H476     1.0000 0.88759  0.35677  0.07033  Biso   1.000  H 
  C351     1.0000 0.95320  0.36224  0.98925  Biso   1.000  C 
  C352     1.0000 0.02502  0.36475  0.98805  Biso   1.000  C 
  H477     1.0000 0.93529  0.40858  0.98083  Biso   1.000  H 
  H478     1.0000 0.93408  0.32735  0.95251  Biso   1.000  H 
  H479     1.0000 0.02368  0.08531  0.47771  Biso   1.000  H 
  H480     1.0000 0.08435  0.12462  0.52634  Biso   1.000  H 
  H481     1.0000 0.10630  0.06405  0.46609  Biso   1.000  H 
  H482     1.0000 0.03854  0.40788  0.01102  Biso   1.000  H 
  H483     1.0000 0.03606  0.37117  0.93963  Biso   1.000  H 
  H484     1.0000 0.04811  0.32073  0.00690  Biso   1.000  H 
  C353     1.0000 0.50000  0.84640  0.34640  Biso   1.000  C 
  O113     1.0000 0.50000  0.90471  0.32954  Biso   1.000  O 
  O114     1.0000 0.50000  0.82954  0.40471  Biso   1.000  O 
  C354     1.0000 0.50000  0.79500  0.29500  Biso   1.000  C 
  C355     1.0000 0.50000  0.73249  0.31563  Biso   1.000  C 
  N45      1.0000 0.45002  0.71657  0.36969  Biso   1.000  N 
  H485     1.0000 0.50000  0.63051  0.27872  Biso   1.000  H 
  C356     1.0000 0.50000  0.68442  0.26751  Biso   1.000  C 
  C357     1.0000 0.50000  0.70500  0.20500  Biso   1.000  C 
  C358     1.0000 0.50000  0.76751  0.18442  Biso   1.000  C 
  C359     1.0000 0.50000  0.81563  0.23249  Biso   1.000  C 
  H486     1.0000 0.50000  0.86954  0.22128  Biso   1.000  H 
  N46      1.0000 0.51464  0.78436  0.11573  Biso   1.000  N 
  O115     1.0000 0.50000  0.67046  0.09530  Biso   1.000  O 
  C360     1.0000 0.50000  0.65360  0.15360  Biso   1.000  C 
  O116     1.0000 0.50000  0.59529  0.17046  Biso   1.000  O 
  H487     1.0000 0.41304  0.75202  0.37723  Biso   1.000  H 
  C361     1.0000 0.47175  0.70130  0.43497  Biso   1.000  C 
  H488     1.0000 0.45469  0.65799  0.45418  Biso   1.000  H 
  H489     1.0000 0.45481  0.74171  0.46266  Biso   1.000  H 
  C362     1.0000 0.53766  0.70161  0.44631  Biso   1.000  C 
  H490     1.0000 0.56570  0.74544  0.42794  Biso   1.000  H 
  C363     1.0000 0.57064  0.64348  0.42348  Biso   1.000  C 
  H491     1.0000 0.53762  0.69990  0.49862  Biso   1.000  H 
  H492     1.0000 0.62058  0.66169  0.41656  Biso   1.000  H 
  C364     1.0000 0.57367  0.59185  0.47244  Biso   1.000  C 
  H493     1.0000 0.54728  0.63704  0.37886  Biso   1.000  H 
  C365     1.0000 0.45534  0.78131  0.07839  Biso   1.000  C 
  H494     1.0000 0.55642  0.76325  0.09588  Biso   1.000  H 
  H495     1.0000 0.46524  0.75788  0.03262  Biso   1.000  H 
  C366     1.0000 0.43478  0.85020  0.06936  Biso   1.000  C 
  H496     1.0000 0.42140  0.75109  0.10521  Biso   1.000  H 
  H497     1.0000 0.44751  0.87992  0.11164  Biso   1.000  H 
  H498     1.0000 0.38394  0.85131  0.06663  Biso   1.000  H 
  C367     1.0000 0.46198  0.87882  0.00596  Biso   1.000  C 
  C368     1.0000 0.52854  0.85299  0.99512  Biso   1.000  C 
  H499     1.0000 0.46588  0.93053  0.00978  Biso   1.000  H 
  H500     1.0000 0.42989  0.86463  0.96237  Biso   1.000  H 
  H501     1.0000 0.59563  0.60568  0.52011  Biso   1.000  H 
  H502     1.0000 0.60731  0.55564  0.45243  Biso   1.000  H 
  H503     1.0000 0.52778  0.56912  0.48198  Biso   1.000  H 
  H504     1.0000 0.54978  0.85803  0.04000  Biso   1.000  H 
  H505     1.0000 0.55642  0.87871  0.95985  Biso   1.000  H 
  H506     1.0000 0.53433  0.80147  0.98621  Biso   1.000  H 
  C369     1.0000 0.50000  0.34640  0.84640  Biso   1.000  C 
  O117     1.0000 0.50000  0.40471  0.82954  Biso   1.000  O 
  O118     1.0000 0.50000  0.32954  0.90471  Biso   1.000  O 
  C370     1.0000 0.50000  0.29500  0.79500  Biso   1.000  C 
  C371     1.0000 0.50000  0.23249  0.81563  Biso   1.000  C 
  N47      1.0000 0.45170  0.21863  0.87125  Biso   1.000  N 
  H507     1.0000 0.50000  0.13051  0.77872  Biso   1.000  H 
  C372     1.0000 0.50000  0.18442  0.76752  Biso   1.000  C 
  C373     1.0000 0.50000  0.20500  0.70501  Biso   1.000  C 
  C374     1.0000 0.50000  0.26751  0.68442  Biso   1.000  C 
  C375     1.0000 0.50000  0.31563  0.73249  Biso   1.000  C 
  H508     1.0000 0.50000  0.36954  0.72128  Biso   1.000  H 
  N48      1.0000 0.51813  0.28243  0.61581  Biso   1.000  N 
  O119     1.0000 0.50000  0.17046  0.59530  Biso   1.000  O 
  C376     1.0000 0.50000  0.15360  0.65361  Biso   1.000  C 
  O120     1.0000 0.50000  0.09529  0.67047  Biso   1.000  O 
  H509     1.0000 0.41399  0.25320  0.87231  Biso   1.000  H 
  C377     1.0000 0.46973  0.20782  0.93647  Biso   1.000  C 
  H510     1.0000 0.44976  0.16722  0.96237  Biso   1.000  H 
  H511     1.0000 0.45833  0.24959  0.96381  Biso   1.000  H 
  C378     1.0000 0.53768  0.20246  0.94739  Biso   1.000  C 
  H512     1.0000 0.56221  0.24404  0.92984  Biso   1.000  H 
  C379     1.0000 0.57004  0.14573  0.92348  Biso   1.000  C 
  H513     1.0000 0.53767  0.20482  0.00054  Biso   1.000  H 
  H514     1.0000 0.61963  0.15919  0.92477  Biso   1.000  H 
  C380     1.0000 0.56915  0.09050  0.97433  Biso   1.000  C 
  H515     1.0000 0.55597  0.13655  0.87414  Biso   1.000  H 
  C381     1.0000 0.45965  0.28005  0.57426  Biso   1.000  C 
  H516     1.0000 0.56075  0.25941  0.60046  Biso   1.000  H 
  H517     1.0000 0.47339  0.25409  0.53079  Biso   1.000  H 
  C382     1.0000 0.43854  0.34907  0.56209  Biso   1.000  C 
  H518     1.0000 0.41985  0.25202  0.59642  Biso   1.000  H 
  H519     1.0000 0.46151  0.38366  0.59692  Biso   1.000  H 
  H520     1.0000 0.38723  0.35183  0.56933  Biso   1.000  H 
  C383     1.0000 0.45777  0.36792  0.49334  Biso   1.000  C 
  C384     1.0000 0.53014  0.36062  0.49157  Biso   1.000  C 
  H521     1.0000 0.44308  0.41479  0.48501  Biso   1.000  H 
  H522     1.0000 0.43549  0.33814  0.45363  Biso   1.000  H 
  H523     1.0000 0.52101  0.07091  0.97689  Biso   1.000  H 
  H524     1.0000 0.58349  0.10625  0.02393  Biso   1.000  H 
  H525     1.0000 0.60405  0.05441  0.95871  Biso   1.000  H 
  H526     1.0000 0.54370  0.37821  0.53714  Biso   1.000  H 
  H527     1.0000 0.55701  0.38389  0.45467  Biso   1.000  H 
  H528     1.0000 0.54205  0.31086  0.48937  Biso   1.000  H 
