data_image0
_cell_length_a       20.7004
_cell_length_b       20.7004
_cell_length_c       20.7004
_cell_angle_alpha    90
_cell_angle_beta     90
_cell_angle_gamma    90

_symmetry_space_group_name_H-M    "P 1"
_symmetry_int_tables_number       1

loop_
  _symmetry_equiv_pos_as_xyz
  'x, y, z'

loop_
  _atom_site_label
  _atom_site_occupancy
  _atom_site_fract_x
  _atom_site_fract_y
  _atom_site_fract_z
  _atom_site_thermal_displace_type
  _atom_site_B_iso_or_equiv
  _atom_site_type_symbol
  Zr1      1.0000 0.11989  0.00000  0.00000  Biso   1.000  Zr
  Zr2      1.0000 0.11989  0.50000  0.50000  Biso   1.000  Zr
  Zr3      1.0000 0.61989  0.00000  0.50000  Biso   1.000  Zr
  Zr4      1.0000 0.61989  0.50000  0.00000  Biso   1.000  Zr
  Zr5      1.0000 0.88011  0.00000  0.00000  Biso   1.000  Zr
  Zr6      1.0000 0.88011  0.50000  0.50000  Biso   1.000  Zr
  Zr7      1.0000 0.38011  0.00000  0.50000  Biso   1.000  Zr
  Zr8      1.0000 0.38011  0.50000  0.00000  Biso   1.000  Zr
  Zr9      1.0000 0.00000  0.11989  0.00000  Biso   1.000  Zr
  Zr10     1.0000 0.00000  0.61989  0.50000  Biso   1.000  Zr
  Zr11     1.0000 0.50000  0.11989  0.50000  Biso   1.000  Zr
  Zr12     1.0000 0.50000  0.61989  0.00000  Biso   1.000  Zr
  Zr13     1.0000 0.00000  0.88011  0.00000  Biso   1.000  Zr
  Zr14     1.0000 0.00000  0.38011  0.50000  Biso   1.000  Zr
  Zr15     1.0000 0.50000  0.88011  0.50000  Biso   1.000  Zr
  Zr16     1.0000 0.50000  0.38011  0.00000  Biso   1.000  Zr
  Zr17     1.0000 0.00000  0.00000  0.11989  Biso   1.000  Zr
  Zr18     1.0000 0.00000  0.50000  0.61989  Biso   1.000  Zr
  Zr19     1.0000 0.50000  0.00000  0.61989  Biso   1.000  Zr
  Zr20     1.0000 0.50000  0.50000  0.11989  Biso   1.000  Zr
  Zr21     1.0000 0.00000  0.00000  0.88011  Biso   1.000  Zr
  Zr22     1.0000 0.00000  0.50000  0.38011  Biso   1.000  Zr
  Zr23     1.0000 0.50000  0.00000  0.38011  Biso   1.000  Zr
  Zr24     1.0000 0.50000  0.50000  0.88011  Biso   1.000  Zr
  O1       1.0000 0.05610  0.44390  0.44390  Biso   1.000  O 
  O2       1.0000 0.55610  0.94390  0.44390  Biso   1.000  O 
  O3       1.0000 0.55610  0.44390  0.94390  Biso   1.000  O 
  O4       1.0000 0.44390  0.05610  0.44390  Biso   1.000  O 
  O5       1.0000 0.44390  0.55610  0.94390  Biso   1.000  O 
  O6       1.0000 0.94390  0.94390  0.05610  Biso   1.000  O 
  O7       1.0000 0.94390  0.44390  0.55610  Biso   1.000  O 
  O8       1.0000 0.05610  0.05610  0.05610  Biso   1.000  O 
  O9       1.0000 0.55610  0.55610  0.05610  Biso   1.000  O 
  O10      1.0000 0.94390  0.05610  0.05610  Biso   1.000  O 
  O11      1.0000 0.94390  0.55610  0.55610  Biso   1.000  O 
  O12      1.0000 0.44390  0.05610  0.55610  Biso   1.000  O 
  O13      1.0000 0.44390  0.55610  0.05610  Biso   1.000  O 
  O14      1.0000 0.05610  0.94390  0.05610  Biso   1.000  O 
  O15      1.0000 0.05610  0.44390  0.55610  Biso   1.000  O 
  O16      1.0000 0.55610  0.94390  0.55610  Biso   1.000  O 
  O17      1.0000 0.55610  0.44390  0.05610  Biso   1.000  O 
  O18      1.0000 0.94390  0.94390  0.94390  Biso   1.000  O 
  O19      1.0000 0.94390  0.44390  0.44390  Biso   1.000  O 
  O20      1.0000 0.44390  0.94390  0.44390  Biso   1.000  O 
  O21      1.0000 0.44390  0.44390  0.94390  Biso   1.000  O 
  O22      1.0000 0.05610  0.05610  0.94390  Biso   1.000  O 
  O23      1.0000 0.05610  0.55610  0.44390  Biso   1.000  O 
  O24      1.0000 0.55610  0.05610  0.44390  Biso   1.000  O 
  C1       1.0000 0.15360  0.00000  0.84640  Biso   1.000  C 
  O25      1.0000 0.17046  0.00000  0.90471  Biso   1.000  O 
  O26      1.0000 0.09529  0.00000  0.82954  Biso   1.000  O 
  C2       1.0000 0.20500  0.00000  0.79500  Biso   1.000  C 
  C3       1.0000 0.18437  0.00000  0.73249  Biso   1.000  C 
  N1       1.0000 0.13221  0.94613  0.71965  Biso   1.000  N 
  H1       1.0000 0.22128  0.00000  0.63051  Biso   1.000  H 
  C4       1.0000 0.23249  0.00000  0.68442  Biso   1.000  C 
  C5       1.0000 0.29500  0.00000  0.70500  Biso   1.000  C 
  C6       1.0000 0.31558  0.00000  0.76751  Biso   1.000  C 
  C7       1.0000 0.26751  0.00000  0.81563  Biso   1.000  C 
  H2       1.0000 0.27872  0.00000  0.86954  Biso   1.000  H 
  H3       1.0000 0.36949  0.00000  0.77872  Biso   1.000  H 
  O27      1.0000 0.40470  0.00000  0.67046  Biso   1.000  O 
  C8       1.0000 0.34640  0.00000  0.65360  Biso   1.000  C 
  O28      1.0000 0.32954  0.00000  0.59529  Biso   1.000  O 
  H4       1.0000 0.08509  0.95296  0.73519  Biso   1.000  H 
  C9       1.0000 0.15349  0.88048  0.74599  Biso   1.000  C 
  H5       1.0000 0.11134  0.85030  0.75671  Biso   1.000  H 
  H6       1.0000 0.18248  0.88307  0.79084  Biso   1.000  H 
  C10      1.0000 0.19804  0.84319  0.70074  Biso   1.000  C 
  H7       1.0000 0.23979  0.87336  0.68685  Biso   1.000  H 
  C11      1.0000 0.16181  0.81632  0.64307  Biso   1.000  C 
  H8       1.0000 0.21662  0.80045  0.72765  Biso   1.000  H 
  H9       1.0000 0.19990  0.80262  0.61053  Biso   1.000  H 
  H10      1.0000 0.13529  0.77226  0.66013  Biso   1.000  H 
  C12      1.0000 0.11402  0.86472  0.61416  Biso   1.000  C 
  H11      1.0000 0.13666  0.91285  0.60378  Biso   1.000  H 
  H12      1.0000 0.07261  0.87136  0.64668  Biso   1.000  H 
  H13      1.0000 0.09265  0.84327  0.57076  Biso   1.000  H 
  C13      1.0000 0.15360  0.50000  0.34640  Biso   1.000  C 
  O29      1.0000 0.17046  0.50000  0.40471  Biso   1.000  O 
  O30      1.0000 0.09529  0.50000  0.32954  Biso   1.000  O 
  C14      1.0000 0.20500  0.50000  0.29500  Biso   1.000  C 
  C15      1.0000 0.18437  0.50000  0.23249  Biso   1.000  C 
  N2       1.0000 0.13412  0.44418  0.21923  Biso   1.000  N 
  H14      1.0000 0.22128  0.50000  0.13051  Biso   1.000  H 
  C16      1.0000 0.23249  0.50000  0.18442  Biso   1.000  C 
  C17      1.0000 0.29500  0.50000  0.20500  Biso   1.000  C 
  C18      1.0000 0.31558  0.50000  0.26751  Biso   1.000  C 
  C19      1.0000 0.26751  0.50000  0.31563  Biso   1.000  C 
  H15      1.0000 0.27872  0.50000  0.36954  Biso   1.000  H 
  H16      1.0000 0.36949  0.50000  0.27872  Biso   1.000  H 
  O31      1.0000 0.40470  0.50000  0.17046  Biso   1.000  O 
  C20      1.0000 0.34640  0.50000  0.15360  Biso   1.000  C 
  O32      1.0000 0.32954  0.50000  0.09529  Biso   1.000  O 
  H17      1.0000 0.08875  0.45149  0.23665  Biso   1.000  H 
  C21      1.0000 0.15584  0.38150  0.24882  Biso   1.000  C 
  H18      1.0000 0.11266  0.35318  0.26386  Biso   1.000  H 
  H19      1.0000 0.18597  0.38729  0.29214  Biso   1.000  H 
  C22      1.0000 0.19812  0.34273  0.20373  Biso   1.000  C 
  H20      1.0000 0.22563  0.37468  0.17084  Biso   1.000  H 
  C23      1.0000 0.15435  0.29814  0.16366  Biso   1.000  C 
  H21      1.0000 0.23313  0.31406  0.23377  Biso   1.000  H 
  H22      1.0000 0.18612  0.26835  0.13230  Biso   1.000  H 
  H23      1.0000 0.12692  0.26660  0.19618  Biso   1.000  H 
  C24      1.0000 0.10713  0.33923  0.12195  Biso   1.000  C 
  H24      1.0000 0.13322  0.37907  0.09848  Biso   1.000  H 
  H25      1.0000 0.06817  0.36294  0.14712  Biso   1.000  H 
  H26      1.0000 0.08661  0.30938  0.08415  Biso   1.000  H 
  C25      1.0000 0.65360  0.00000  0.34640  Biso   1.000  C 
  O33      1.0000 0.67046  0.00000  0.40471  Biso   1.000  O 
  O34      1.0000 0.59529  0.00000  0.32954  Biso   1.000  O 
  C26      1.0000 0.70500  0.00000  0.29500  Biso   1.000  C 
  C27      1.0000 0.68437  0.00000  0.23249  Biso   1.000  C 
  N3       1.0000 0.62938  0.95060  0.21774  Biso   1.000  N 
  H27      1.0000 0.72128  0.00000  0.13051  Biso   1.000  H 
  C28      1.0000 0.73248  0.00000  0.18442  Biso   1.000  C 
  C29      1.0000 0.79499  0.00000  0.20500  Biso   1.000  C 
  C30      1.0000 0.81558  0.00000  0.26751  Biso   1.000  C 
  C31      1.0000 0.76751  0.00000  0.31563  Biso   1.000  C 
  H28      1.0000 0.77872  0.00000  0.36954  Biso   1.000  H 
  H29      1.0000 0.86949  0.00000  0.27872  Biso   1.000  H 
  O35      1.0000 0.90470  0.00000  0.17046  Biso   1.000  O 
  C32      1.0000 0.84639  0.00000  0.15360  Biso   1.000  C 
  O36      1.0000 0.82953  0.00000  0.09529  Biso   1.000  O 
  H30      1.0000 0.58235  0.96262  0.22920  Biso   1.000  H 
  C33      1.0000 0.64396  0.88828  0.25138  Biso   1.000  C 
  H31      1.0000 0.60118  0.85983  0.25630  Biso   1.000  H 
  H32      1.0000 0.66195  0.89086  0.30128  Biso   1.000  H 
  C34      1.0000 0.69409  0.85023  0.21207  Biso   1.000  C 
  H33      1.0000 0.73008  0.88081  0.18880  Biso   1.000  H 
  C35      1.0000 0.66322  0.80920  0.16009  Biso   1.000  C 
  H34      1.0000 0.72076  0.81709  0.24646  Biso   1.000  H 
  H35      1.0000 0.70322  0.79657  0.12745  Biso   1.000  H 
  H36      1.0000 0.64628  0.76496  0.18322  Biso   1.000  H 
  C36      1.0000 0.60917  0.84419  0.11909  Biso   1.000  C 
  H37      1.0000 0.63311  0.88306  0.09317  Biso   1.000  H 
  H38      1.0000 0.57018  0.86588  0.14631  Biso   1.000  H 
  H39      1.0000 0.58774  0.80975  0.08529  Biso   1.000  H 
  C37      1.0000 0.65360  0.50000  0.84640  Biso   1.000  C 
  O37      1.0000 0.67046  0.50000  0.90471  Biso   1.000  O 
  O38      1.0000 0.59529  0.50000  0.82954  Biso   1.000  O 
  C38      1.0000 0.70500  0.50000  0.79500  Biso   1.000  C 
  C39      1.0000 0.68437  0.50000  0.73249  Biso   1.000  C 
  N4       1.0000 0.62624  0.45598  0.71714  Biso   1.000  N 
  H40      1.0000 0.72128  0.50000  0.63051  Biso   1.000  H 
  C40      1.0000 0.73248  0.50000  0.68442  Biso   1.000  C 
  C41      1.0000 0.79499  0.50000  0.70500  Biso   1.000  C 
  C42      1.0000 0.81558  0.50000  0.76751  Biso   1.000  C 
  C43      1.0000 0.76751  0.50000  0.81563  Biso   1.000  C 
  H41      1.0000 0.77872  0.50000  0.86954  Biso   1.000  H 
  H42      1.0000 0.86949  0.50000  0.77872  Biso   1.000  H 
  O39      1.0000 0.90470  0.50000  0.67046  Biso   1.000  O 
  C44      1.0000 0.84639  0.50000  0.65360  Biso   1.000  C 
  O40      1.0000 0.82953  0.50000  0.59529  Biso   1.000  O 
  H43      1.0000 0.57958  0.47234  0.72859  Biso   1.000  H 
  C45      1.0000 0.64204  0.38986  0.73958  Biso   1.000  C 
  H44      1.0000 0.59944  0.36355  0.75149  Biso   1.000  H 
  H45      1.0000 0.67259  0.38791  0.78359  Biso   1.000  H 
  C46      1.0000 0.67961  0.35558  0.68578  Biso   1.000  C 
  H46      1.0000 0.71304  0.38866  0.66055  Biso   1.000  H 
  C47      1.0000 0.64244  0.32115  0.63524  Biso   1.000  C 
  H47      1.0000 0.70948  0.31876  0.71008  Biso   1.000  H 
  H48      1.0000 0.68245  0.30472  0.60556  Biso   1.000  H 
  H49      1.0000 0.61904  0.27847  0.65812  Biso   1.000  H 
  C48      1.0000 0.59598  0.36895  0.60239  Biso   1.000  C 
  H50      1.0000 0.61838  0.41551  0.59272  Biso   1.000  H 
  H51      1.0000 0.55768  0.37473  0.63501  Biso   1.000  H 
  H52      1.0000 0.57627  0.34835  0.55990  Biso   1.000  H 
  C49      1.0000 0.84640  0.00000  0.84640  Biso   1.000  C 
  O41      1.0000 0.82954  0.00000  0.90471  Biso   1.000  O 
  O42      1.0000 0.90471  0.00000  0.82954  Biso   1.000  O 
  C50      1.0000 0.79500  0.00000  0.79500  Biso   1.000  C 
  C51      1.0000 0.81563  0.00000  0.73249  Biso   1.000  C 
  N5       1.0000 0.87378  0.95656  0.71542  Biso   1.000  N 
  H53      1.0000 0.77872  0.00000  0.63051  Biso   1.000  H 
  C52      1.0000 0.76752  0.00000  0.68442  Biso   1.000  C 
  C53      1.0000 0.70501  0.00000  0.70500  Biso   1.000  C 
  C54      1.0000 0.68442  0.00000  0.76751  Biso   1.000  C 
  C55      1.0000 0.73249  0.00000  0.81563  Biso   1.000  C 
  H54      1.0000 0.72128  0.00000  0.86954  Biso   1.000  H 
  H55      1.0000 0.63051  0.00000  0.77872  Biso   1.000  H 
  O43      1.0000 0.59530  0.00000  0.67046  Biso   1.000  O 
  C56      1.0000 0.65361  0.00000  0.65360  Biso   1.000  C 
  O44      1.0000 0.67047  0.00000  0.59529  Biso   1.000  O 
  H56      1.0000 0.85596  0.91020  0.71147  Biso   1.000  H 
  C57      1.0000 0.91145  0.96568  0.65720  Biso   1.000  C 
  H57      1.0000 0.88305  0.98068  0.61451  Biso   1.000  H 
  H58      1.0000 0.93519  0.91813  0.64455  Biso   1.000  H 
  C58      1.0000 0.96158  0.01362  0.67784  Biso   1.000  C 
  H59      1.0000 0.94160  0.06196  0.68066  Biso   1.000  H 
  C59      1.0000 0.01490  0.01701  0.63019  Biso   1.000  C 
  H60      1.0000 0.98166  0.99915  0.72629  Biso   1.000  H 
  H61      1.0000 0.99302  0.03525  0.58538  Biso   1.000  H 
  H62      1.0000 0.03454  0.96791  0.61933  Biso   1.000  H 
  C60      1.0000 0.07077  0.05677  0.65787  Biso   1.000  C 
  H63      1.0000 0.07592  0.04915  0.70998  Biso   1.000  H 
  H64      1.0000 0.06692  0.10954  0.65369  Biso   1.000  H 
  H65      1.0000 0.11516  0.03935  0.63369  Biso   1.000  H 
  C61      1.0000 0.84640  0.50000  0.34640  Biso   1.000  C 
  O45      1.0000 0.82954  0.50000  0.40471  Biso   1.000  O 
  O46      1.0000 0.90471  0.50000  0.32954  Biso   1.000  O 
  C62      1.0000 0.79500  0.50000  0.29500  Biso   1.000  C 
  C63      1.0000 0.81563  0.50000  0.23249  Biso   1.000  C 
  N6       1.0000 0.87161  0.45327  0.21678  Biso   1.000  N 
  H66      1.0000 0.77872  0.50000  0.13051  Biso   1.000  H 
  C64      1.0000 0.76752  0.50000  0.18442  Biso   1.000  C 
  C65      1.0000 0.70501  0.50000  0.20500  Biso   1.000  C 
  C66      1.0000 0.68442  0.50000  0.26751  Biso   1.000  C 
  C67      1.0000 0.73249  0.50000  0.31563  Biso   1.000  C 
  H67      1.0000 0.72128  0.50000  0.36954  Biso   1.000  H 
  H68      1.0000 0.63051  0.50000  0.27872  Biso   1.000  H 
  O47      1.0000 0.59530  0.50000  0.17046  Biso   1.000  O 
  C68      1.0000 0.65361  0.50000  0.15360  Biso   1.000  C 
  O48      1.0000 0.67047  0.50000  0.09529  Biso   1.000  O 
  H69      1.0000 0.85596  0.40580  0.21168  Biso   1.000  H 
  C69      1.0000 0.91064  0.47069  0.16341  Biso   1.000  C 
  H70      1.0000 0.88589  0.49901  0.12549  Biso   1.000  H 
  H71      1.0000 0.93118  0.42587  0.14241  Biso   1.000  H 
  C70      1.0000 0.96265  0.50773  0.19389  Biso   1.000  C 
  H72      1.0000 0.94227  0.54917  0.22248  Biso   1.000  H 
  C71      1.0000 0.00550  0.53078  0.14292  Biso   1.000  C 
  H73      1.0000 0.98707  0.47674  0.22891  Biso   1.000  H 
  H74      1.0000 0.97897  0.56884  0.11691  Biso   1.000  H 
  H75      1.0000 0.01746  0.49033  0.11084  Biso   1.000  H 
  C72      1.0000 0.06513  0.55486  0.17529  Biso   1.000  C 
  H76      1.0000 0.06636  0.55034  0.22826  Biso   1.000  H 
  H77      1.0000 0.07627  0.60442  0.16449  Biso   1.000  H 
  H78      1.0000 0.10148  0.52501  0.15477  Biso   1.000  H 
  C73      1.0000 0.34640  0.00000  0.34640  Biso   1.000  C 
  O49      1.0000 0.32954  0.00000  0.40471  Biso   1.000  O 
  O50      1.0000 0.40471  0.00000  0.32954  Biso   1.000  O 
  C74      1.0000 0.29500  0.00000  0.29500  Biso   1.000  C 
  C75      1.0000 0.31563  0.00000  0.23249  Biso   1.000  C 
  N7       1.0000 0.37191  0.95263  0.21870  Biso   1.000  N 
  H79      1.0000 0.27872  0.00000  0.13051  Biso   1.000  H 
  C76      1.0000 0.26751  0.00000  0.18442  Biso   1.000  C 
  C77      1.0000 0.20500  0.00000  0.20500  Biso   1.000  C 
  C78      1.0000 0.18442  0.00000  0.26751  Biso   1.000  C 
  C79      1.0000 0.23249  0.00000  0.31563  Biso   1.000  C 
  H80      1.0000 0.22128  0.00000  0.36954  Biso   1.000  H 
  H81      1.0000 0.13051  0.00000  0.27872  Biso   1.000  H 
  O51      1.0000 0.09530  0.00000  0.17046  Biso   1.000  O 
  C80      1.0000 0.15360  0.00000  0.15360  Biso   1.000  C 
  O52      1.0000 0.17046  0.00000  0.09529  Biso   1.000  O 
  H82      1.0000 0.35407  0.90555  0.21669  Biso   1.000  H 
  C81      1.0000 0.41033  0.96664  0.16232  Biso   1.000  C 
  H83      1.0000 0.38005  0.98084  0.11950  Biso   1.000  H 
  H84      1.0000 0.43795  0.92213  0.15000  Biso   1.000  H 
  C82      1.0000 0.45592  0.01928  0.18325  Biso   1.000  C 
  H85      1.0000 0.42971  0.05755  0.20941  Biso   1.000  H 
  C83      1.0000 0.49306  0.04667  0.12801  Biso   1.000  C 
  H86      1.0000 0.48663  0.99292  0.21785  Biso   1.000  H 
  H87      1.0000 0.46775  0.09085  0.10923  Biso   1.000  H 
  H88      1.0000 0.49490  0.00985  0.08854  Biso   1.000  H 
  C84      1.0000 0.56032  0.06059  0.15263  Biso   1.000  C 
  H89      1.0000 0.56740  0.06325  0.20540  Biso   1.000  H 
  H90      1.0000 0.57464  0.10763  0.13329  Biso   1.000  H 
  H91      1.0000 0.58665  0.01891  0.13763  Biso   1.000  H 
  C85      1.0000 0.34640  0.50000  0.84640  Biso   1.000  C 
  O53      1.0000 0.32954  0.50000  0.90471  Biso   1.000  O 
  O54      1.0000 0.40471  0.50000  0.82954  Biso   1.000  O 
  C86      1.0000 0.29500  0.50000  0.79500  Biso   1.000  C 
  C87      1.0000 0.31563  0.50000  0.73249  Biso   1.000  C 
  N8       1.0000 0.38460  0.47723  0.71670  Biso   1.000  N 
  H92      1.0000 0.27872  0.50000  0.63051  Biso   1.000  H 
  C88      1.0000 0.26751  0.50000  0.68442  Biso   1.000  C 
  C89      1.0000 0.20500  0.50000  0.70500  Biso   1.000  C 
  C90      1.0000 0.18442  0.50000  0.76751  Biso   1.000  C 
  C91      1.0000 0.23249  0.50000  0.81563  Biso   1.000  C 
  H93      1.0000 0.22128  0.50000  0.86954  Biso   1.000  H 
  H94      1.0000 0.13051  0.50000  0.77872  Biso   1.000  H 
  O55      1.0000 0.09530  0.50000  0.67046  Biso   1.000  O 
  C92      1.0000 0.15360  0.50000  0.65360  Biso   1.000  C 
  O56      1.0000 0.17046  0.50000  0.59529  Biso   1.000  O 
  H95      1.0000 0.39003  0.43338  0.74068  Biso   1.000  H 
  C93      1.0000 0.40899  0.46569  0.65043  Biso   1.000  C 
  H96      1.0000 0.37739  0.48571  0.61368  Biso   1.000  H 
  H97      1.0000 0.41326  0.41216  0.64093  Biso   1.000  H 
  C94      1.0000 0.47582  0.49617  0.64055  Biso   1.000  C 
  H98      1.0000 0.47994  0.53366  0.67791  Biso   1.000  H 
  C95      1.0000 0.48730  0.52759  0.57420  Biso   1.000  C 
  H99      1.0000 0.51336  0.46093  0.64789  Biso   1.000  H 
  H100     1.0000 0.45709  0.57046  0.57488  Biso   1.000  H 
  H101     1.0000 0.47454  0.49387  0.53384  Biso   1.000  H 
  C96      1.0000 0.55335  0.55938  0.56601  Biso   1.000  C 
  H102     1.0000 0.55785  0.60129  0.59885  Biso   1.000  H 
  H103     1.0000 0.55808  0.57625  0.51506  Biso   1.000  H 
  H104     1.0000 0.59098  0.52419  0.57832  Biso   1.000  H 
  C97      1.0000 0.84640  0.15360  0.00000  Biso   1.000  C 
  O57      1.0000 0.90471  0.17046  0.00000  Biso   1.000  O 
  O58      1.0000 0.82954  0.09529  0.00000  Biso   1.000  O 
  C98      1.0000 0.79500  0.20500  0.00000  Biso   1.000  C 
  C99      1.0000 0.73249  0.18437  0.00000  Biso   1.000  C 
  N9       1.0000 0.72233  0.13263  0.94163  Biso   1.000  N 
  H105     1.0000 0.63051  0.22128  0.00000  Biso   1.000  H 
  C100     1.0000 0.68442  0.23249  0.00000  Biso   1.000  C 
  C101     1.0000 0.70500  0.29500  0.00000  Biso   1.000  C 
  C102     1.0000 0.76751  0.31558  0.00000  Biso   1.000  C 
  C103     1.0000 0.81563  0.26751  0.00000  Biso   1.000  C 
  H106     1.0000 0.86954  0.27872  0.00000  Biso   1.000  H 
  H107     1.0000 0.77872  0.36949  0.00000  Biso   1.000  H 
  O59      1.0000 0.67046  0.40470  0.00000  Biso   1.000  O 
  C104     1.0000 0.65360  0.34640  0.00000  Biso   1.000  C 
  O60      1.0000 0.59529  0.32954  0.00000  Biso   1.000  O 
  H108     1.0000 0.73911  0.08529  0.94416  Biso   1.000  H 
  C105     1.0000 0.74763  0.15554  0.87821  Biso   1.000  C 
  H109     1.0000 0.75514  0.11327  0.84702  Biso   1.000  H 
  H110     1.0000 0.79585  0.17747  0.88382  Biso   1.000  H 
  C106     1.0000 0.70041  0.20433  0.84504  Biso   1.000  C 
  H111     1.0000 0.67814  0.24018  0.87875  Biso   1.000  H 
  C107     1.0000 0.64844  0.16564  0.81129  Biso   1.000  C 
  H112     1.0000 0.72650  0.23207  0.80701  Biso   1.000  H 
  H113     1.0000 0.61411  0.20213  0.79614  Biso   1.000  H 
  H114     1.0000 0.67047  0.14154  0.76732  Biso   1.000  H 
  C108     1.0000 0.61823  0.11470  0.85730  Biso   1.000  C 
  H115     1.0000 0.60496  0.13842  0.90269  Biso   1.000  H 
  H116     1.0000 0.64941  0.07545  0.86658  Biso   1.000  H 
  H117     1.0000 0.57530  0.09317  0.83562  Biso   1.000  H 
  C109     1.0000 0.84640  0.65360  0.50000  Biso   1.000  C 
  O61      1.0000 0.90471  0.67046  0.50000  Biso   1.000  O 
  O62      1.0000 0.82954  0.59529  0.50000  Biso   1.000  O 
  C110     1.0000 0.79500  0.70500  0.50000  Biso   1.000  C 
  C111     1.0000 0.73249  0.68437  0.50000  Biso   1.000  C 
  N10      1.0000 0.71796  0.63293  0.44968  Biso   1.000  N 
  H118     1.0000 0.63051  0.72128  0.50000  Biso   1.000  H 
  C112     1.0000 0.68442  0.73248  0.50000  Biso   1.000  C 
  C113     1.0000 0.70500  0.79499  0.50000  Biso   1.000  C 
  C114     1.0000 0.76751  0.81558  0.50000  Biso   1.000  C 
  C115     1.0000 0.81563  0.76751  0.50000  Biso   1.000  C 
  H119     1.0000 0.86954  0.77872  0.50000  Biso   1.000  H 
  H120     1.0000 0.77872  0.86949  0.50000  Biso   1.000  H 
  O63      1.0000 0.67046  0.90470  0.50000  Biso   1.000  O 
  C116     1.0000 0.65360  0.84639  0.50000  Biso   1.000  C 
  O64      1.0000 0.59529  0.82953  0.50000  Biso   1.000  O 
  H121     1.0000 0.72803  0.58514  0.46338  Biso   1.000  H 
  C117     1.0000 0.74510  0.64833  0.38346  Biso   1.000  C 
  H122     1.0000 0.75742  0.60408  0.35935  Biso   1.000  H 
  H123     1.0000 0.78941  0.67833  0.38522  Biso   1.000  H 
  C118     1.0000 0.69929  0.68845  0.34020  Biso   1.000  C 
  H124     1.0000 0.68907  0.73328  0.36660  Biso   1.000  H 
  C119     1.0000 0.63621  0.65648  0.32267  Biso   1.000  C 
  H125     1.0000 0.72561  0.70145  0.29503  Biso   1.000  H 
  H126     1.0000 0.60631  0.69798  0.31460  Biso   1.000  H 
  H127     1.0000 0.64452  0.63116  0.27634  Biso   1.000  H 
  C120     1.0000 0.60884  0.61050  0.37577  Biso   1.000  C 
  H128     1.0000 0.60339  0.63718  0.42202  Biso   1.000  H 
  H129     1.0000 0.63915  0.56768  0.38244  Biso   1.000  H 
  H130     1.0000 0.56277  0.59280  0.36222  Biso   1.000  H 
  C121     1.0000 0.34640  0.15360  0.50000  Biso   1.000  C 
  O65      1.0000 0.40471  0.17046  0.50000  Biso   1.000  O 
  O66      1.0000 0.32954  0.09529  0.50000  Biso   1.000  O 
  C122     1.0000 0.29500  0.20500  0.50000  Biso   1.000  C 
  C123     1.0000 0.23249  0.18437  0.50000  Biso   1.000  C 
  N11      1.0000 0.21767  0.13074  0.45246  Biso   1.000  N 
  H131     1.0000 0.13051  0.22128  0.50000  Biso   1.000  H 
  C124     1.0000 0.18442  0.23249  0.50000  Biso   1.000  C 
  C125     1.0000 0.20500  0.29500  0.50000  Biso   1.000  C 
  C126     1.0000 0.26751  0.31558  0.50000  Biso   1.000  C 
  C127     1.0000 0.31563  0.26751  0.50000  Biso   1.000  C 
  H132     1.0000 0.36954  0.27872  0.50000  Biso   1.000  H 
  H133     1.0000 0.27872  0.36949  0.50000  Biso   1.000  H 
  O67      1.0000 0.17046  0.40470  0.50000  Biso   1.000  O 
  C128     1.0000 0.15360  0.34640  0.50000  Biso   1.000  C 
  O68      1.0000 0.09529  0.32954  0.50000  Biso   1.000  O 
  H134     1.0000 0.22553  0.08463  0.47058  Biso   1.000  H 
  C129     1.0000 0.24796  0.14506  0.38916  Biso   1.000  C 
  H135     1.0000 0.25939  0.10094  0.36391  Biso   1.000  H 
  H136     1.0000 0.29428  0.17133  0.39148  Biso   1.000  H 
  C130     1.0000 0.20663  0.18827  0.34480  Biso   1.000  C 
  H137     1.0000 0.17326  0.21861  0.37383  Biso   1.000  H 
  C131     1.0000 0.17189  0.14988  0.29442  Biso   1.000  C 
  H138     1.0000 0.24028  0.22044  0.31685  Biso   1.000  H 
  H139     1.0000 0.15142  0.18516  0.26062  Biso   1.000  H 
  H140     1.0000 0.20717  0.12017  0.26924  Biso   1.000  H 
  C132     1.0000 0.11615  0.10976  0.32140  Biso   1.000  C 
  H141     1.0000 0.08608  0.14239  0.34782  Biso   1.000  H 
  H142     1.0000 0.13208  0.07051  0.35429  Biso   1.000  H 
  H143     1.0000 0.08997  0.08908  0.28059  Biso   1.000  H 
  C133     1.0000 0.34640  0.65360  0.00000  Biso   1.000  C 
  O69      1.0000 0.40471  0.67046  0.00000  Biso   1.000  O 
  O70      1.0000 0.32954  0.59529  0.00000  Biso   1.000  O 
  C134     1.0000 0.29500  0.70500  0.00000  Biso   1.000  C 
  C135     1.0000 0.23249  0.68437  0.00000  Biso   1.000  C 
  N12      1.0000 0.21867  0.63607  0.94455  Biso   1.000  N 
  H144     1.0000 0.13051  0.72128  0.00000  Biso   1.000  H 
  C136     1.0000 0.18442  0.73248  0.00000  Biso   1.000  C 
  C137     1.0000 0.20500  0.79499  0.00000  Biso   1.000  C 
  C138     1.0000 0.26751  0.81558  0.00000  Biso   1.000  C 
  C139     1.0000 0.31563  0.76751  0.00000  Biso   1.000  C 
  H145     1.0000 0.36954  0.77872  0.00000  Biso   1.000  H 
  H146     1.0000 0.27872  0.86949  0.00000  Biso   1.000  H 
  O71      1.0000 0.17046  0.90470  0.00000  Biso   1.000  O 
  C140     1.0000 0.15360  0.84639  0.00000  Biso   1.000  C 
  O72      1.0000 0.09529  0.82953  0.00000  Biso   1.000  O 
  H147     1.0000 0.23120  0.58852  0.95303  Biso   1.000  H 
  C141     1.0000 0.25007  0.65707  0.88156  Biso   1.000  C 
  H148     1.0000 0.25816  0.61386  0.85156  Biso   1.000  H 
  H149     1.0000 0.29813  0.67992  0.88678  Biso   1.000  H 
  C142     1.0000 0.21087  0.70632  0.84312  Biso   1.000  C 
  H150     1.0000 0.18322  0.73924  0.87569  Biso   1.000  H 
  C143     1.0000 0.16545  0.67119  0.79620  Biso   1.000  C 
  H151     1.0000 0.24472  0.73597  0.81415  Biso   1.000  H 
  H152     1.0000 0.13657  0.70931  0.77114  Biso   1.000  H 
  H153     1.0000 0.19520  0.64643  0.75995  Biso   1.000  H 
  C144     1.0000 0.12226  0.62034  0.83268  Biso   1.000  C 
  H154     1.0000 0.09114  0.64705  0.86518  Biso   1.000  H 
  H155     1.0000 0.14862  0.58277  0.86106  Biso   1.000  H 
  H156     1.0000 0.09329  0.59372  0.79670  Biso   1.000  H 
  C145     1.0000 0.84640  0.84640  0.00000  Biso   1.000  C 
  O73      1.0000 0.90471  0.82954  0.00000  Biso   1.000  O 
  O74      1.0000 0.82954  0.90471  0.00000  Biso   1.000  O 
  C146     1.0000 0.79500  0.79500  0.00000  Biso   1.000  C 
  C147     1.0000 0.73249  0.81563  0.00000  Biso   1.000  C 
  N13      1.0000 0.71659  0.87358  0.95523  Biso   1.000  N 
  H157     1.0000 0.63051  0.77872  0.00000  Biso   1.000  H 
  C148     1.0000 0.68442  0.76752  0.00000  Biso   1.000  C 
  C149     1.0000 0.70500  0.70501  0.00000  Biso   1.000  C 
  C150     1.0000 0.76751  0.68442  0.00000  Biso   1.000  C 
  C151     1.0000 0.81563  0.73249  0.00000  Biso   1.000  C 
  H158     1.0000 0.86954  0.72128  0.00000  Biso   1.000  H 
  H159     1.0000 0.77872  0.63051  0.00000  Biso   1.000  H 
  O75      1.0000 0.67046  0.59530  0.00000  Biso   1.000  O 
  C152     1.0000 0.65360  0.65361  0.00000  Biso   1.000  C 
  O76      1.0000 0.59529  0.67047  0.00000  Biso   1.000  O 
  H160     1.0000 0.72221  0.86062  0.90747  Biso   1.000  H 
  C153     1.0000 0.65839  0.90979  0.95987  Biso   1.000  C 
  H161     1.0000 0.61741  0.87985  0.97642  Biso   1.000  H 
  H162     1.0000 0.64615  0.92916  0.91130  Biso   1.000  H 
  C154     1.0000 0.67561  0.96374  0.00476  Biso   1.000  C 
  H163     1.0000 0.69530  0.94451  0.05008  Biso   1.000  H 
  C155     1.0000 0.62210  0.01238  0.01549  Biso   1.000  C 
  H164     1.0000 0.71571  0.98918  0.97885  Biso   1.000  H 
  H165     1.0000 0.58493  0.98750  0.04473  Biso   1.000  H 
  H166     1.0000 0.60035  0.02642  0.96737  Biso   1.000  H 
  C156     1.0000 0.65187  0.07206  0.04547  Biso   1.000  C 
  H167     1.0000 0.70045  0.07718  0.03142  Biso   1.000  H 
  H168     1.0000 0.66051  0.06853  0.09666  Biso   1.000  H 
  H169     1.0000 0.62260  0.11584  0.03398  Biso   1.000  H 
  C157     1.0000 0.84640  0.34640  0.50000  Biso   1.000  C 
  O77      1.0000 0.90471  0.32954  0.50000  Biso   1.000  O 
  O78      1.0000 0.82954  0.40471  0.50000  Biso   1.000  O 
  C158     1.0000 0.79500  0.29500  0.50000  Biso   1.000  C 
  C159     1.0000 0.73249  0.31563  0.50000  Biso   1.000  C 
  N14      1.0000 0.71508  0.37792  0.46914  Biso   1.000  N 
  H170     1.0000 0.63051  0.27872  0.50000  Biso   1.000  H 
  C160     1.0000 0.68442  0.26751  0.50000  Biso   1.000  C 
  C161     1.0000 0.70500  0.20500  0.50000  Biso   1.000  C 
  C162     1.0000 0.76751  0.18442  0.50000  Biso   1.000  C 
  C163     1.0000 0.81563  0.23249  0.50000  Biso   1.000  C 
  H171     1.0000 0.86954  0.22128  0.50000  Biso   1.000  H 
  H172     1.0000 0.77872  0.13051  0.50000  Biso   1.000  H 
  O79      1.0000 0.67046  0.09530  0.50000  Biso   1.000  O 
  C164     1.0000 0.65360  0.15360  0.50000  Biso   1.000  C 
  O80      1.0000 0.59529  0.17046  0.50000  Biso   1.000  O 
  H173     1.0000 0.70729  0.42019  0.49506  Biso   1.000  H 
  C165     1.0000 0.70476  0.36785  0.39923  Biso   1.000  C 
  H174     1.0000 0.71934  0.31803  0.38560  Biso   1.000  H 
  H175     1.0000 0.73749  0.39882  0.37179  Biso   1.000  H 
  C166     1.0000 0.63270  0.36458  0.37555  Biso   1.000  C 
  H176     1.0000 0.62952  0.38923  0.32780  Biso   1.000  H 
  C167     1.0000 0.58382  0.39692  0.42377  Biso   1.000  C 
  H177     1.0000 0.61765  0.31269  0.37089  Biso   1.000  H 
  H178     1.0000 0.60492  0.44523  0.44108  Biso   1.000  H 
  H179     1.0000 0.58143  0.36011  0.46239  Biso   1.000  H 
  C168     1.0000 0.51020  0.40987  0.40568  Biso   1.000  C 
  H180     1.0000 0.50507  0.43348  0.35784  Biso   1.000  H 
  H181     1.0000 0.48575  0.44143  0.44180  Biso   1.000  H 
  H182     1.0000 0.48382  0.36528  0.40473  Biso   1.000  H 
  C169     1.0000 0.34640  0.84640  0.50000  Biso   1.000  C 
  O81      1.0000 0.40471  0.82954  0.50000  Biso   1.000  O 
  O82      1.0000 0.32954  0.90471  0.50000  Biso   1.000  O 
  C170     1.0000 0.29500  0.79500  0.50000  Biso   1.000  C 
  C171     1.0000 0.23249  0.81563  0.50000  Biso   1.000  C 
  N15      1.0000 0.21333  0.88122  0.47746  Biso   1.000  N 
  H183     1.0000 0.13051  0.77872  0.50000  Biso   1.000  H 
  C172     1.0000 0.18442  0.76752  0.50000  Biso   1.000  C 
  C173     1.0000 0.20500  0.70501  0.50000  Biso   1.000  C 
  C174     1.0000 0.26751  0.68442  0.50000  Biso   1.000  C 
  C175     1.0000 0.31563  0.73249  0.50000  Biso   1.000  C 
  H184     1.0000 0.36954  0.72128  0.50000  Biso   1.000  H 
  H185     1.0000 0.27872  0.63051  0.50000  Biso   1.000  H 
  O83      1.0000 0.17046  0.59530  0.50000  Biso   1.000  O 
  C176     1.0000 0.15360  0.65361  0.50000  Biso   1.000  C 
  O84      1.0000 0.09529  0.67047  0.50000  Biso   1.000  O 
  H186     1.0000 0.17620  0.89254  0.51112  Biso   1.000  H 
  C177     1.0000 0.18300  0.88628  0.41183  Biso   1.000  C 
  H187     1.0000 0.21820  0.87712  0.37280  Biso   1.000  H 
  H188     1.0000 0.16988  0.93673  0.41048  Biso   1.000  H 
  C178     1.0000 0.11795  0.84854  0.39212  Biso   1.000  C 
  H189     1.0000 0.11454  0.85714  0.33944  Biso   1.000  H 
  C179     1.0000 0.06211  0.87979  0.42455  Biso   1.000  C 
  H190     1.0000 0.11713  0.79651  0.39797  Biso   1.000  H 
  H191     1.0000 0.06750  0.86495  0.47363  Biso   1.000  H 
  H192     1.0000 0.01647  0.86238  0.40531  Biso   1.000  H 
  C180     1.0000 0.05330  0.95213  0.42739  Biso   1.000  C 
  H193     1.0000 0.06871  0.97843  0.38399  Biso   1.000  H 
  H194     1.0000 0.07978  0.97275  0.46992  Biso   1.000  H 
  H195     1.0000 0.00028  0.95987  0.43333  Biso   1.000  H 
  C181     1.0000 0.34640  0.34640  0.00000  Biso   1.000  C 
  O85      1.0000 0.40471  0.32954  0.00000  Biso   1.000  O 
  O86      1.0000 0.32954  0.40471  0.00000  Biso   1.000  O 
  C182     1.0000 0.29500  0.29500  0.00000  Biso   1.000  C 
  C183     1.0000 0.23249  0.31563  0.00000  Biso   1.000  C 
  N16      1.0000 0.21726  0.37213  0.95383  Biso   1.000  N 
  H196     1.0000 0.13051  0.27872  0.00000  Biso   1.000  H 
  C184     1.0000 0.18442  0.26751  0.00000  Biso   1.000  C 
  C185     1.0000 0.20500  0.20500  0.00000  Biso   1.000  C 
  C186     1.0000 0.26751  0.18442  0.00000  Biso   1.000  C 
  C187     1.0000 0.31563  0.23249  0.00000  Biso   1.000  C 
  H197     1.0000 0.36954  0.22128  0.00000  Biso   1.000  H 
  H198     1.0000 0.27872  0.13051  0.00000  Biso   1.000  H 
  O87      1.0000 0.17046  0.09530  0.00000  Biso   1.000  O 
  C188     1.0000 0.15360  0.15360  0.00000  Biso   1.000  C 
  O88      1.0000 0.09529  0.17046  0.00000  Biso   1.000  O 
  H199     1.0000 0.21449  0.35632  0.90638  Biso   1.000  H 
  C189     1.0000 0.16340  0.41249  0.97001  Biso   1.000  C 
  H200     1.0000 0.12162  0.38521  0.99034  Biso   1.000  H 
  H201     1.0000 0.14764  0.43360  0.92406  Biso   1.000  H 
  C190     1.0000 0.19009  0.46280  0.01395  Biso   1.000  C 
  H202     1.0000 0.21125  0.43878  0.05584  Biso   1.000  H 
  C191     1.0000 0.13733  0.50865  0.03185  Biso   1.000  C 
  H203     1.0000 0.22940  0.48724  0.98609  Biso   1.000  H 
  H204     1.0000 0.10435  0.48307  0.06404  Biso   1.000  H 
  H205     1.0000 0.10986  0.52217  0.98824  Biso   1.000  H 
  C192     1.0000 0.16927  0.56909  0.06006  Biso   1.000  C 
  H206     1.0000 0.22259  0.56664  0.05556  Biso   1.000  H 
  H207     1.0000 0.16238  0.58188  0.10988  Biso   1.000  H 
  H208     1.0000 0.15390  0.60782  0.03267  Biso   1.000  H 
  C193     1.0000 0.00000  0.84640  0.15360  Biso   1.000  C 
  O89      1.0000 0.00000  0.90471  0.17046  Biso   1.000  O 
  O90      1.0000 0.00000  0.82954  0.09529  Biso   1.000  O 
  C194     1.0000 0.00000  0.79500  0.20500  Biso   1.000  C 
  C195     1.0000 0.00000  0.73249  0.18437  Biso   1.000  C 
  N17      1.0000 0.94282  0.71858  0.13673  Biso   1.000  N 
  H209     1.0000 0.00000  0.63051  0.22128  Biso   1.000  H 
  C196     1.0000 0.00000  0.68442  0.23249  Biso   1.000  C 
  C197     1.0000 0.00000  0.70500  0.29500  Biso   1.000  C 
  C198     1.0000 0.00000  0.76751  0.31558  Biso   1.000  C 
  C199     1.0000 0.00000  0.81563  0.26751  Biso   1.000  C 
  H210     1.0000 0.00000  0.86954  0.27872  Biso   1.000  H 
  H211     1.0000 0.00000  0.77872  0.36949  Biso   1.000  H 
  O91      1.0000 0.00000  0.67046  0.40470  Biso   1.000  O 
  C200     1.0000 0.00000  0.65360  0.34640  Biso   1.000  C 
  O92      1.0000 0.00000  0.59529  0.32954  Biso   1.000  O 
  H212     1.0000 0.94852  0.73548  0.09008  Biso   1.000  H 
  C201     1.0000 0.88027  0.74837  0.15842  Biso   1.000  C 
  H213     1.0000 0.84972  0.75799  0.11565  Biso   1.000  H 
  H214     1.0000 0.88673  0.79631  0.18060  Biso   1.000  H 
  C202     1.0000 0.84406  0.70802  0.20856  Biso   1.000  C 
  H215     1.0000 0.87548  0.67416  0.23585  Biso   1.000  H 
  C203     1.0000 0.79196  0.66947  0.17531  Biso   1.000  C 
  H216     1.0000 0.82082  0.74083  0.24390  Biso   1.000  H 
  H217     1.0000 0.76844  0.63978  0.21255  Biso   1.000  H 
  H218     1.0000 0.75646  0.70358  0.15348  Biso   1.000  H 
  C204     1.0000 0.82399  0.62668  0.12462  Biso   1.000  C 
  H219     1.0000 0.85375  0.59310  0.15323  Biso   1.000  H 
  H220     1.0000 0.85507  0.64908  0.08665  Biso   1.000  H 
  H221     1.0000 0.78597  0.60013  0.09809  Biso   1.000  H 
  C205     1.0000 0.00000  0.34640  0.65360  Biso   1.000  C 
  O93      1.0000 0.00000  0.40471  0.67046  Biso   1.000  O 
  O94      1.0000 0.00000  0.32954  0.59529  Biso   1.000  O 
  C206     1.0000 0.00000  0.29500  0.70500  Biso   1.000  C 
  C207     1.0000 0.00000  0.23249  0.68437  Biso   1.000  C 
  N18      1.0000 0.95349  0.21751  0.62905  Biso   1.000  N 
  H222     1.0000 0.00000  0.13051  0.72128  Biso   1.000  H 
  C208     1.0000 0.00000  0.18442  0.73248  Biso   1.000  C 
  C209     1.0000 0.00000  0.20500  0.79499  Biso   1.000  C 
  C210     1.0000 0.00000  0.26751  0.81558  Biso   1.000  C 
  C211     1.0000 0.00000  0.31563  0.76751  Biso   1.000  C 
  H223     1.0000 0.00000  0.36954  0.77872  Biso   1.000  H 
  H224     1.0000 0.00000  0.27872  0.86949  Biso   1.000  H 
  O95      1.0000 0.00000  0.17046  0.90470  Biso   1.000  O 
  C212     1.0000 0.00000  0.15360  0.84639  Biso   1.000  C 
  O96      1.0000 0.00000  0.09529  0.82953  Biso   1.000  O 
  H225     1.0000 0.97254  0.22248  0.58372  Biso   1.000  H 
  C213     1.0000 0.88945  0.24887  0.64161  Biso   1.000  C 
  H226     1.0000 0.86279  0.24780  0.59857  Biso   1.000  H 
  H227     1.0000 0.89190  0.30061  0.65409  Biso   1.000  H 
  C214     1.0000 0.85096  0.21297  0.69503  Biso   1.000  C 
  H228     1.0000 0.88144  0.18020  0.72299  Biso   1.000  H 
  C215     1.0000 0.79691  0.17081  0.66868  Biso   1.000  C 
  H229     1.0000 0.82994  0.24967  0.72821  Biso   1.000  H 
  H230     1.0000 0.77401  0.14655  0.71085  Biso   1.000  H 
  H231     1.0000 0.76106  0.20254  0.64492  Biso   1.000  H 
  C216     1.0000 0.82783  0.11942  0.62353  Biso   1.000  C 
  H232     1.0000 0.85254  0.08380  0.65271  Biso   1.000  H 
  H233     1.0000 0.86118  0.13912  0.58770  Biso   1.000  H 
  H234     1.0000 0.78895  0.09549  0.59757  Biso   1.000  H 
  C217     1.0000 0.50000  0.84640  0.65360  Biso   1.000  C 
  O97      1.0000 0.50000  0.90471  0.67046  Biso   1.000  O 
  O98      1.0000 0.50000  0.82954  0.59529  Biso   1.000  O 
  C218     1.0000 0.50000  0.79500  0.70500  Biso   1.000  C 
  C219     1.0000 0.50000  0.73249  0.68437  Biso   1.000  C 
  N19      1.0000 0.45590  0.71508  0.62822  Biso   1.000  N 
  H235     1.0000 0.50000  0.63051  0.72128  Biso   1.000  H 
  C220     1.0000 0.50000  0.68442  0.73248  Biso   1.000  C 
  C221     1.0000 0.50000  0.70500  0.79499  Biso   1.000  C 
  C222     1.0000 0.50000  0.76751  0.81558  Biso   1.000  C 
  C223     1.0000 0.50000  0.81563  0.76751  Biso   1.000  C 
  H236     1.0000 0.50000  0.86954  0.77872  Biso   1.000  H 
  H237     1.0000 0.50000  0.77872  0.86949  Biso   1.000  H 
  O99      1.0000 0.50000  0.67046  0.90470  Biso   1.000  O 
  C224     1.0000 0.50000  0.65360  0.84639  Biso   1.000  C 
  O100     1.0000 0.50000  0.59529  0.82953  Biso   1.000  O 
  H238     1.0000 0.47293  0.72594  0.58211  Biso   1.000  H 
  C225     1.0000 0.39030  0.74525  0.64327  Biso   1.000  C 
  H239     1.0000 0.36216  0.74857  0.60108  Biso   1.000  H 
  H240     1.0000 0.39045  0.79579  0.66080  Biso   1.000  H 
  C226     1.0000 0.34899  0.70684  0.69304  Biso   1.000  C 
  H241     1.0000 0.37978  0.67854  0.72519  Biso   1.000  H 
  C227     1.0000 0.29921  0.66172  0.66568  Biso   1.000  C 
  H242     1.0000 0.32203  0.74168  0.72392  Biso   1.000  H 
  H243     1.0000 0.28198  0.63120  0.70582  Biso   1.000  H 
  H244     1.0000 0.25690  0.68950  0.64568  Biso   1.000  H 
  C228     1.0000 0.33545  0.61887  0.61964  Biso   1.000  C 
  H245     1.0000 0.36357  0.58493  0.65078  Biso   1.000  H 
  H246     1.0000 0.37019  0.64254  0.58388  Biso   1.000  H 
  H247     1.0000 0.29544  0.59362  0.59466  Biso   1.000  H 
  C229     1.0000 0.50000  0.34640  0.15360  Biso   1.000  C 
  O101     1.0000 0.50000  0.40471  0.17046  Biso   1.000  O 
  O102     1.0000 0.50000  0.32954  0.09529  Biso   1.000  O 
  C230     1.0000 0.50000  0.29500  0.20500  Biso   1.000  C 
  C231     1.0000 0.50000  0.23249  0.18437  Biso   1.000  C 
  N20      1.0000 0.45388  0.21549  0.13017  Biso   1.000  N 
  H248     1.0000 0.50000  0.13051  0.22128  Biso   1.000  H 
  C232     1.0000 0.50000  0.18442  0.23249  Biso   1.000  C 
  C233     1.0000 0.50000  0.20500  0.29500  Biso   1.000  C 
  C234     1.0000 0.50000  0.26751  0.31558  Biso   1.000  C 
  C235     1.0000 0.50000  0.31563  0.26751  Biso   1.000  C 
  H249     1.0000 0.50000  0.36954  0.27872  Biso   1.000  H 
  H250     1.0000 0.50000  0.27872  0.36949  Biso   1.000  H 
  O103     1.0000 0.50000  0.17046  0.40470  Biso   1.000  O 
  C236     1.0000 0.50000  0.15360  0.34640  Biso   1.000  C 
  O104     1.0000 0.50000  0.09529  0.32954  Biso   1.000  O 
  H251     1.0000 0.47022  0.22911  0.08520  Biso   1.000  H 
  C237     1.0000 0.38896  0.24459  0.14585  Biso   1.000  C 
  H252     1.0000 0.36106  0.25299  0.10226  Biso   1.000  H 
  H253     1.0000 0.39000  0.29165  0.17012  Biso   1.000  H 
  C238     1.0000 0.34638  0.20274  0.19215  Biso   1.000  C 
  H254     1.0000 0.37772  0.17381  0.22386  Biso   1.000  H 
  C239     1.0000 0.29808  0.16078  0.15763  Biso   1.000  C 
  H255     1.0000 0.31742  0.23632  0.22456  Biso   1.000  H 
  H256     1.0000 0.27426  0.13063  0.19443  Biso   1.000  H 
  H257     1.0000 0.26062  0.19065  0.13463  Biso   1.000  H 
  C240     1.0000 0.32988  0.11672  0.11221  Biso   1.000  C 
  H258     1.0000 0.36046  0.08265  0.13625  Biso   1.000  H 
  H259     1.0000 0.35780  0.14548  0.07737  Biso   1.000  H 
  H260     1.0000 0.29338  0.08809  0.08611  Biso   1.000  H 
  C241     1.0000 0.00000  0.84640  0.84640  Biso   1.000  C 
  O105     1.0000 0.00000  0.90471  0.82954  Biso   1.000  O 
  O106     1.0000 0.00000  0.82954  0.90471  Biso   1.000  O 
  C242     1.0000 0.00000  0.79500  0.79500  Biso   1.000  C 
  C243     1.0000 0.00000  0.73249  0.81563  Biso   1.000  C 
  N21      1.0000 0.94912  0.71700  0.86947  Biso   1.000  N 
  H261     1.0000 0.00000  0.63051  0.77872  Biso   1.000  H 
  C244     1.0000 0.00000  0.68442  0.76752  Biso   1.000  C 
  C245     1.0000 0.00000  0.70500  0.70501  Biso   1.000  C 
  C246     1.0000 0.00000  0.76751  0.68442  Biso   1.000  C 
  C247     1.0000 0.00000  0.81563  0.73249  Biso   1.000  C 
  H262     1.0000 0.00000  0.86954  0.72128  Biso   1.000  H 
  H263     1.0000 0.00000  0.77872  0.63051  Biso   1.000  H 
  O107     1.0000 0.00000  0.67046  0.59530  Biso   1.000  O 
  C248     1.0000 0.00000  0.65360  0.65361  Biso   1.000  C 
  O108     1.0000 0.00000  0.59529  0.67047  Biso   1.000  O 
  H264     1.0000 0.90358  0.70865  0.84966  Biso   1.000  H 
  C249     1.0000 0.96573  0.66512  0.91188  Biso   1.000  C 
  H265     1.0000 0.98905  0.62426  0.88698  Biso   1.000  H 
  H266     1.0000 0.92199  0.64810  0.93750  Biso   1.000  H 
  C250     1.0000 0.01020  0.69310  0.95953  Biso   1.000  C 
  H267     1.0000 0.05027  0.71967  0.93553  Biso   1.000  H 
  C251     1.0000 0.03822  0.64192  0.00274  Biso   1.000  C 
  H268     1.0000 0.98240  0.72826  0.98860  Biso   1.000  H 
  H269     1.0000 0.07742  0.62214  0.97516  Biso   1.000  H 
  H270     1.0000 0.00122  0.60290  0.01223  Biso   1.000  H 
  C252     1.0000 0.05545  0.67608  0.06501  Biso   1.000  C 
  H271     1.0000 0.05100  0.72826  0.06318  Biso   1.000  H 
  H272     1.0000 0.10106  0.66722  0.08749  Biso   1.000  H 
  H273     1.0000 0.02036  0.65706  0.09753  Biso   1.000  H 
  C253     1.0000 0.00000  0.34640  0.34640  Biso   1.000  C 
  O109     1.0000 0.00000  0.40471  0.32954  Biso   1.000  O 
  O110     1.0000 0.00000  0.32954  0.40471  Biso   1.000  O 
  C254     1.0000 0.00000  0.29500  0.29500  Biso   1.000  C 
  C255     1.0000 0.00000  0.23249  0.31563  Biso   1.000  C 
  N22      1.0000 0.95322  0.21833  0.37322  Biso   1.000  N 
  H274     1.0000 0.00000  0.13051  0.27872  Biso   1.000  H 
  C256     1.0000 0.00000  0.18442  0.26751  Biso   1.000  C 
  C257     1.0000 0.00000  0.20500  0.20500  Biso   1.000  C 
  C258     1.0000 0.00000  0.26751  0.18442  Biso   1.000  C 
  C259     1.0000 0.00000  0.31563  0.23249  Biso   1.000  C 
  H275     1.0000 0.00000  0.36954  0.22128  Biso   1.000  H 
  H276     1.0000 0.00000  0.27872  0.13051  Biso   1.000  H 
  O111     1.0000 0.00000  0.17046  0.09530  Biso   1.000  O 
  C260     1.0000 0.00000  0.15360  0.15360  Biso   1.000  C 
  O112     1.0000 0.00000  0.09529  0.17046  Biso   1.000  O 
  H277     1.0000 0.90692  0.21064  0.35523  Biso   1.000  H 
  C261     1.0000 0.96941  0.16496  0.41414  Biso   1.000  C 
  H278     1.0000 0.97734  0.11886  0.38617  Biso   1.000  H 
  H279     1.0000 0.93003  0.15879  0.44924  Biso   1.000  H 
  C262     1.0000 0.02914  0.18412  0.44888  Biso   1.000  C 
  H280     1.0000 0.06243  0.20971  0.41686  Biso   1.000  H 
  C263     1.0000 0.06420  0.12631  0.47463  Biso   1.000  C 
  H281     1.0000 0.01439  0.21805  0.48781  Biso   1.000  H 
  H282     1.0000 0.11044  0.12180  0.45113  Biso   1.000  H 
  H283     1.0000 0.03559  0.08074  0.46770  Biso   1.000  H 
  C264     1.0000 0.07381  0.13467  0.54483  Biso   1.000  C 
  H284     1.0000 0.08729  0.18022  0.57123  Biso   1.000  H 
  H285     1.0000 0.10919  0.09742  0.55447  Biso   1.000  H 
  H286     1.0000 0.02529  0.12266  0.56267  Biso   1.000  H 
  C265     1.0000 0.50000  0.84640  0.34640  Biso   1.000  C 
  O113     1.0000 0.50000  0.90471  0.32954  Biso   1.000  O 
  O114     1.0000 0.50000  0.82954  0.40471  Biso   1.000  O 
  C266     1.0000 0.50000  0.79500  0.29500  Biso   1.000  C 
  C267     1.0000 0.50000  0.73249  0.31563  Biso   1.000  C 
  N23      1.0000 0.45981  0.72087  0.37642  Biso   1.000  N 
  H287     1.0000 0.50000  0.63051  0.27872  Biso   1.000  H 
  C268     1.0000 0.50000  0.68442  0.26751  Biso   1.000  C 
  C269     1.0000 0.50000  0.70500  0.20500  Biso   1.000  C 
  C270     1.0000 0.50000  0.76751  0.18442  Biso   1.000  C 
  C271     1.0000 0.50000  0.81563  0.23249  Biso   1.000  C 
  H288     1.0000 0.50000  0.86954  0.22128  Biso   1.000  H 
  H289     1.0000 0.50000  0.77872  0.13051  Biso   1.000  H 
  O115     1.0000 0.50000  0.67046  0.09530  Biso   1.000  O 
  C272     1.0000 0.50000  0.65360  0.15360  Biso   1.000  C 
  O116     1.0000 0.50000  0.59529  0.17046  Biso   1.000  O 
  H290     1.0000 0.48492  0.68741  0.40278  Biso   1.000  H 
  C273     1.0000 0.39120  0.70346  0.36052  Biso   1.000  C 
  H291     1.0000 0.38062  0.72054  0.30998  Biso   1.000  H 
  H292     1.0000 0.35974  0.72774  0.39367  Biso   1.000  H 
  C274     1.0000 0.37742  0.63096  0.35785  Biso   1.000  C 
  H293     1.0000 0.32609  0.62277  0.36328  Biso   1.000  H 
  C275     1.0000 0.41609  0.58664  0.40973  Biso   1.000  C 
  H294     1.0000 0.38944  0.61058  0.30919  Biso   1.000  H 
  H295     1.0000 0.46271  0.60277  0.43169  Biso   1.000  H 
  H296     1.0000 0.42925  0.54600  0.37763  Biso   1.000  H 
  C276     1.0000 0.37601  0.55180  0.46147  Biso   1.000  C 
  H297     1.0000 0.38835  0.56923  0.50979  Biso   1.000  H 
  H298     1.0000 0.38197  0.49845  0.45728  Biso   1.000  H 
  H299     1.0000 0.32385  0.56239  0.45295  Biso   1.000  H 
  C277     1.0000 0.50000  0.34640  0.84640  Biso   1.000  C 
  O117     1.0000 0.50000  0.40471  0.82954  Biso   1.000  O 
  O118     1.0000 0.50000  0.32954  0.90471  Biso   1.000  O 
  C278     1.0000 0.50000  0.29500  0.79500  Biso   1.000  C 
  C279     1.0000 0.50000  0.23249  0.81563  Biso   1.000  C 
  N24      1.0000 0.46967  0.21839  0.87998  Biso   1.000  N 
  H300     1.0000 0.50000  0.13051  0.77872  Biso   1.000  H 
  C280     1.0000 0.50000  0.18442  0.76752  Biso   1.000  C 
  C281     1.0000 0.50000  0.20500  0.70501  Biso   1.000  C 
  C282     1.0000 0.50000  0.26751  0.68442  Biso   1.000  C 
  C283     1.0000 0.50000  0.31563  0.73249  Biso   1.000  C 
  H301     1.0000 0.50000  0.36954  0.72128  Biso   1.000  H 
  H302     1.0000 0.50000  0.27872  0.63051  Biso   1.000  H 
  O119     1.0000 0.50000  0.17046  0.59530  Biso   1.000  O 
  C284     1.0000 0.50000  0.15360  0.65361  Biso   1.000  C 
  O120     1.0000 0.50000  0.09529  0.67047  Biso   1.000  O 
  H303     1.0000 0.49971  0.19351  0.91173  Biso   1.000  H 
  C285     1.0000 0.40590  0.18751  0.86552  Biso   1.000  C 
  H304     1.0000 0.38659  0.21019  0.81990  Biso   1.000  H 
  H305     1.0000 0.37103  0.19962  0.90348  Biso   1.000  H 
  C286     1.0000 0.40564  0.11463  0.85041  Biso   1.000  C 
  H306     1.0000 0.35265  0.10869  0.84468  Biso   1.000  H 
  C287     1.0000 0.43243  0.07281  0.90147  Biso   1.000  C 
  H307     1.0000 0.42085  0.09822  0.80504  Biso   1.000  H 
  H308     1.0000 0.47509  0.09511  0.92540  Biso   1.000  H 
  H309     1.0000 0.44388  0.02329  0.88283  Biso   1.000  H 
  C288     1.0000 0.37837  0.06310  0.95036  Biso   1.000  C 
  H310     1.0000 0.37333  0.01117  0.95759  Biso   1.000  H 
  H311     1.0000 0.32773  0.08035  0.93644  Biso   1.000  H 
  H312     1.0000 0.39227  0.08372  0.99740  Biso   1.000  H 
