data_image0
_cell_length_a       26.896
_cell_length_b       26.896
_cell_length_c       26.896
_cell_angle_alpha    90
_cell_angle_beta     90
_cell_angle_gamma    90

_symmetry_space_group_name_H-M    "P 1"
_symmetry_int_tables_number       1

loop_
  _symmetry_equiv_pos_as_xyz
  'x, y, z'

loop_
  _atom_site_label
  _atom_site_occupancy
  _atom_site_fract_x
  _atom_site_fract_y
  _atom_site_fract_z
  _atom_site_thermal_displace_type
  _atom_site_B_iso_or_equiv
  _atom_site_type_symbol
  Zr1      1.0000 0.09204  0.00000  0.00000  Biso   1.000  Zr
  Zr2      1.0000 0.90796  0.00000  0.00000  Biso   1.000  Zr
  Zr3      1.0000 0.00000  0.09204  0.00000  Biso   1.000  Zr
  Zr4      1.0000 0.00000  0.90796  0.00000  Biso   1.000  Zr
  Zr5      1.0000 0.00000  0.00000  0.09204  Biso   1.000  Zr
  Zr6      1.0000 0.00000  0.00000  0.90796  Biso   1.000  Zr
  Zr7      1.0000 0.09204  0.50000  0.50000  Biso   1.000  Zr
  Zr8      1.0000 0.90796  0.50000  0.50000  Biso   1.000  Zr
  Zr9      1.0000 0.00000  0.59204  0.50000  Biso   1.000  Zr
  Zr10     1.0000 0.00000  0.40796  0.50000  Biso   1.000  Zr
  Zr11     1.0000 0.00000  0.50000  0.59204  Biso   1.000  Zr
  Zr12     1.0000 0.00000  0.50000  0.40796  Biso   1.000  Zr
  Zr13     1.0000 0.59204  0.00000  0.50000  Biso   1.000  Zr
  Zr14     1.0000 0.40796  0.00000  0.50000  Biso   1.000  Zr
  Zr15     1.0000 0.50000  0.09204  0.50000  Biso   1.000  Zr
  Zr16     1.0000 0.50000  0.90796  0.50000  Biso   1.000  Zr
  Zr17     1.0000 0.50000  0.00000  0.59204  Biso   1.000  Zr
  Zr18     1.0000 0.50000  0.00000  0.40796  Biso   1.000  Zr
  Zr19     1.0000 0.59204  0.50000  0.00000  Biso   1.000  Zr
  Zr20     1.0000 0.40796  0.50000  0.00000  Biso   1.000  Zr
  Zr21     1.0000 0.50000  0.59204  0.00000  Biso   1.000  Zr
  Zr22     1.0000 0.50000  0.40796  0.00000  Biso   1.000  Zr
  Zr23     1.0000 0.50000  0.50000  0.09204  Biso   1.000  Zr
  Zr24     1.0000 0.50000  0.50000  0.90796  Biso   1.000  Zr
  O1       1.0000 0.04540  0.04540  0.04540  Biso   1.000  O 
  O2       1.0000 0.95460  0.95460  0.04540  Biso   1.000  O 
  O3       1.0000 0.95460  0.04540  0.95460  Biso   1.000  O 
  O4       1.0000 0.04540  0.95460  0.95460  Biso   1.000  O 
  O5       1.0000 0.04540  0.04540  0.95460  Biso   1.000  O 
  O6       1.0000 0.95460  0.95460  0.95460  Biso   1.000  O 
  O7       1.0000 0.04540  0.95460  0.04540  Biso   1.000  O 
  O8       1.0000 0.95460  0.04540  0.04540  Biso   1.000  O 
  O9       1.0000 0.04540  0.54540  0.54540  Biso   1.000  O 
  O10      1.0000 0.95460  0.45460  0.54540  Biso   1.000  O 
  O11      1.0000 0.95460  0.54540  0.45460  Biso   1.000  O 
  O12      1.0000 0.04540  0.45460  0.45460  Biso   1.000  O 
  O13      1.0000 0.04540  0.54540  0.45460  Biso   1.000  O 
  O14      1.0000 0.95460  0.45460  0.45460  Biso   1.000  O 
  O15      1.0000 0.04540  0.45460  0.54540  Biso   1.000  O 
  O16      1.0000 0.95460  0.54540  0.54540  Biso   1.000  O 
  O17      1.0000 0.54540  0.04540  0.54540  Biso   1.000  O 
  O18      1.0000 0.45460  0.95460  0.54540  Biso   1.000  O 
  O19      1.0000 0.45460  0.04540  0.45460  Biso   1.000  O 
  O20      1.0000 0.54540  0.95460  0.45460  Biso   1.000  O 
  O21      1.0000 0.54540  0.04540  0.45460  Biso   1.000  O 
  O22      1.0000 0.45460  0.95460  0.45460  Biso   1.000  O 
  O23      1.0000 0.54540  0.95460  0.54540  Biso   1.000  O 
  O24      1.0000 0.45460  0.04540  0.54540  Biso   1.000  O 
  O25      1.0000 0.54540  0.54540  0.04540  Biso   1.000  O 
  O26      1.0000 0.45460  0.45460  0.04540  Biso   1.000  O 
  O27      1.0000 0.45460  0.54540  0.95460  Biso   1.000  O 
  O28      1.0000 0.54540  0.45460  0.95460  Biso   1.000  O 
  O29      1.0000 0.54540  0.54540  0.95460  Biso   1.000  O 
  O30      1.0000 0.45460  0.45460  0.95460  Biso   1.000  O 
  O31      1.0000 0.54540  0.45460  0.04540  Biso   1.000  O 
  O32      1.0000 0.45460  0.54540  0.04540  Biso   1.000  O 
  O33      1.0000 0.13260  0.00000  0.07190  Biso   1.000  O 
  C1       1.0000 0.11720  0.00000  0.11720  Biso   1.000  C 
  O34      1.0000 0.07190  0.00000  0.13260  Biso   1.000  O 
  C2       1.0000 0.15650  0.00000  0.15650  Biso   1.000  C 
  C3       1.0000 0.20580  0.00000  0.14470  Biso   1.000  C 
  C4       1.0000 0.14470  0.00000  0.20580  Biso   1.000  C 
  C5       1.0000 0.24200  0.00000  0.17950  Biso   1.000  C 
  H1       1.0000 0.21490  0.00000  0.11140  Biso   1.000  H 
  C6       1.0000 0.17950  0.00000  0.24200  Biso   1.000  C 
  C7       1.0000 0.08885  0.98530  0.22586  Biso   1.000  C 
  C8       1.0000 0.23070  0.00000  0.23070  Biso   1.000  C 
  C9       1.0000 0.26930  0.00000  0.26930  Biso   1.000  C 
  H2       1.0000 0.27510  0.00000  0.16950  Biso   1.000  H 
  C10      1.0000 0.32050  0.00000  0.25800  Biso   1.000  C 
  H3       1.0000 0.16950  0.00000  0.27510  Biso   1.000  H 
  C11      1.0000 0.25800  0.00000  0.32050  Biso   1.000  C 
  C12      1.0000 0.35530  0.00000  0.29420  Biso   1.000  C 
  H4       1.0000 0.33050  0.00000  0.22490  Biso   1.000  H 
  C13      1.0000 0.29420  0.00000  0.35530  Biso   1.000  C 
  H5       1.0000 0.22490  0.00000  0.33050  Biso   1.000  H 
  C14      1.0000 0.34350  0.00000  0.34350  Biso   1.000  C 
  C15      1.0000 0.38280  0.00000  0.38280  Biso   1.000  C 
  C16      1.0000 0.41282  0.99996  0.27405  Biso   1.000  C 
  H6       1.0000 0.28510  0.00000  0.38860  Biso   1.000  H 
  O35      1.0000 0.42810  0.00000  0.36740  Biso   1.000  O 
  O36      1.0000 0.36740  0.00000  0.42810  Biso   1.000  O 
  F1       1.0000 0.41472  0.99993  0.22026  Biso   1.000  F 
  F2       1.0000 0.43946  0.95728  0.28883  Biso   1.000  F 
  F3       1.0000 0.43951  0.04262  0.28879  Biso   1.000  F 
  F4       1.0000 0.07888  0.93939  0.20815  Biso   1.000  F 
  F5       1.0000 0.05191  0.01905  0.21455  Biso   1.000  F 
  F6       1.0000 0.08989  0.98436  0.27742  Biso   1.000  F 
  O37      1.0000 0.86740  0.00000  0.07190  Biso   1.000  O 
  C17      1.0000 0.88280  0.00000  0.11720  Biso   1.000  C 
  O38      1.0000 0.92810  0.00000  0.13260  Biso   1.000  O 
  C18      1.0000 0.84350  0.00000  0.15650  Biso   1.000  C 
  C19      1.0000 0.79420  0.00000  0.14470  Biso   1.000  C 
  C20      1.0000 0.85530  0.00000  0.20580  Biso   1.000  C 
  C21      1.0000 0.75800  0.00000  0.17950  Biso   1.000  C 
  H7       1.0000 0.78510  0.00000  0.11140  Biso   1.000  H 
  C22      1.0000 0.82050  0.00000  0.24200  Biso   1.000  C 
  C23      1.0000 0.91115  0.01470  0.22586  Biso   1.000  C 
  C24      1.0000 0.76930  0.00000  0.23070  Biso   1.000  C 
  C25      1.0000 0.73070  0.00000  0.26930  Biso   1.000  C 
  H8       1.0000 0.72490  0.00000  0.16950  Biso   1.000  H 
  C26      1.0000 0.67950  0.00000  0.25800  Biso   1.000  C 
  H9       1.0000 0.83050  0.00000  0.27510  Biso   1.000  H 
  C27      1.0000 0.74200  0.00000  0.32050  Biso   1.000  C 
  C28      1.0000 0.64470  0.00000  0.29420  Biso   1.000  C 
  H10      1.0000 0.66950  0.00000  0.22490  Biso   1.000  H 
  C29      1.0000 0.70580  0.00000  0.35530  Biso   1.000  C 
  H11      1.0000 0.77510  0.00000  0.33050  Biso   1.000  H 
  C30      1.0000 0.65650  0.00000  0.34350  Biso   1.000  C 
  C31      1.0000 0.61720  0.00000  0.38280  Biso   1.000  C 
  C32      1.0000 0.58718  0.00004  0.27405  Biso   1.000  C 
  H12      1.0000 0.71490  0.00000  0.38860  Biso   1.000  H 
  O39      1.0000 0.57190  0.00000  0.36740  Biso   1.000  O 
  O40      1.0000 0.63260  0.00000  0.42810  Biso   1.000  O 
  F7       1.0000 0.58528  0.00007  0.22026  Biso   1.000  F 
  F8       1.0000 0.56054  0.04272  0.28883  Biso   1.000  F 
  F9       1.0000 0.56049  0.95738  0.28879  Biso   1.000  F 
  F10      1.0000 0.92112  0.06061  0.20815  Biso   1.000  F 
  F11      1.0000 0.94810  0.98096  0.21455  Biso   1.000  F 
  F12      1.0000 0.91011  0.01564  0.27742  Biso   1.000  F 
  O41      1.0000 0.86740  0.00000  0.92810  Biso   1.000  O 
  C33      1.0000 0.88280  0.00000  0.88280  Biso   1.000  C 
  O42      1.0000 0.92810  0.00000  0.86740  Biso   1.000  O 
  C34      1.0000 0.84350  0.00000  0.84350  Biso   1.000  C 
  C35      1.0000 0.79420  0.00000  0.85530  Biso   1.000  C 
  C36      1.0000 0.85530  0.00000  0.79420  Biso   1.000  C 
  C37      1.0000 0.75800  0.00000  0.82050  Biso   1.000  C 
  H13      1.0000 0.78510  0.00000  0.88860  Biso   1.000  H 
  C38      1.0000 0.82050  0.00000  0.75800  Biso   1.000  C 
  C39      1.0000 0.91115  0.98530  0.77414  Biso   1.000  C 
  C40      1.0000 0.76930  0.00000  0.76930  Biso   1.000  C 
  C41      1.0000 0.73070  0.00000  0.73070  Biso   1.000  C 
  H14      1.0000 0.72490  0.00000  0.83050  Biso   1.000  H 
  C42      1.0000 0.67950  0.00000  0.74200  Biso   1.000  C 
  H15      1.0000 0.83050  0.00000  0.72490  Biso   1.000  H 
  C43      1.0000 0.74200  0.00000  0.67950  Biso   1.000  C 
  C44      1.0000 0.64470  0.00000  0.70580  Biso   1.000  C 
  H16      1.0000 0.66950  0.00000  0.77510  Biso   1.000  H 
  C45      1.0000 0.70580  0.00000  0.64470  Biso   1.000  C 
  H17      1.0000 0.77510  0.00000  0.66950  Biso   1.000  H 
  C46      1.0000 0.65650  0.00000  0.65650  Biso   1.000  C 
  C47      1.0000 0.61720  0.00000  0.61720  Biso   1.000  C 
  C48      1.0000 0.58718  0.99996  0.72595  Biso   1.000  C 
  H18      1.0000 0.71490  0.00000  0.61140  Biso   1.000  H 
  O43      1.0000 0.57190  0.00000  0.63260  Biso   1.000  O 
  O44      1.0000 0.63260  0.00000  0.57190  Biso   1.000  O 
  F13      1.0000 0.58528  0.99993  0.77974  Biso   1.000  F 
  F14      1.0000 0.56054  0.95728  0.71117  Biso   1.000  F 
  F15      1.0000 0.56049  0.04262  0.71121  Biso   1.000  F 
  F16      1.0000 0.92112  0.93939  0.79185  Biso   1.000  F 
  F17      1.0000 0.94810  0.01905  0.78545  Biso   1.000  F 
  F18      1.0000 0.91011  0.98436  0.72258  Biso   1.000  F 
  O45      1.0000 0.13260  0.00000  0.92810  Biso   1.000  O 
  C49      1.0000 0.11720  0.00000  0.88280  Biso   1.000  C 
  O46      1.0000 0.07190  0.00000  0.86740  Biso   1.000  O 
  C50      1.0000 0.15650  0.00000  0.84350  Biso   1.000  C 
  C51      1.0000 0.20580  0.00000  0.85530  Biso   1.000  C 
  C52      1.0000 0.14470  0.00000  0.79420  Biso   1.000  C 
  C53      1.0000 0.24200  0.00000  0.82050  Biso   1.000  C 
  H19      1.0000 0.21490  0.00000  0.88860  Biso   1.000  H 
  C54      1.0000 0.17950  0.00000  0.75800  Biso   1.000  C 
  C55      1.0000 0.08885  0.01470  0.77414  Biso   1.000  C 
  C56      1.0000 0.23070  0.00000  0.76930  Biso   1.000  C 
  C57      1.0000 0.26930  0.00000  0.73070  Biso   1.000  C 
  H20      1.0000 0.27510  0.00000  0.83050  Biso   1.000  H 
  C58      1.0000 0.32050  0.00000  0.74200  Biso   1.000  C 
  H21      1.0000 0.16950  0.00000  0.72490  Biso   1.000  H 
  C59      1.0000 0.25800  0.00000  0.67950  Biso   1.000  C 
  C60      1.0000 0.35530  0.00000  0.70580  Biso   1.000  C 
  H22      1.0000 0.33050  0.00000  0.77510  Biso   1.000  H 
  C61      1.0000 0.29420  0.00000  0.64470  Biso   1.000  C 
  H23      1.0000 0.22490  0.00000  0.66950  Biso   1.000  H 
  C62      1.0000 0.34350  0.00000  0.65650  Biso   1.000  C 
  C63      1.0000 0.38280  0.00000  0.61720  Biso   1.000  C 
  C64      1.0000 0.41282  0.00004  0.72595  Biso   1.000  C 
  H24      1.0000 0.28510  0.00000  0.61140  Biso   1.000  H 
  O47      1.0000 0.42810  0.00000  0.63260  Biso   1.000  O 
  O48      1.0000 0.36740  0.00000  0.57190  Biso   1.000  O 
  F19      1.0000 0.41472  0.00007  0.77974  Biso   1.000  F 
  F20      1.0000 0.43946  0.04272  0.71117  Biso   1.000  F 
  F21      1.0000 0.43951  0.95738  0.71121  Biso   1.000  F 
  F22      1.0000 0.07888  0.06061  0.79185  Biso   1.000  F 
  F23      1.0000 0.05191  0.98096  0.78545  Biso   1.000  F 
  F24      1.0000 0.08989  0.01564  0.72258  Biso   1.000  F 
  O49      1.0000 0.07190  0.13260  0.00000  Biso   1.000  O 
  C65      1.0000 0.11720  0.11720  0.00000  Biso   1.000  C 
  O50      1.0000 0.13260  0.07190  0.00000  Biso   1.000  O 
  C66      1.0000 0.15650  0.15650  0.00000  Biso   1.000  C 
  C67      1.0000 0.14470  0.20580  0.00000  Biso   1.000  C 
  C68      1.0000 0.20580  0.14470  0.00000  Biso   1.000  C 
  C69      1.0000 0.17950  0.24200  0.00000  Biso   1.000  C 
  H25      1.0000 0.11140  0.21490  0.00000  Biso   1.000  H 
  C70      1.0000 0.24200  0.17950  0.00000  Biso   1.000  C 
  C71      1.0000 0.22586  0.08885  0.98530  Biso   1.000  C 
  C72      1.0000 0.23070  0.23070  0.00000  Biso   1.000  C 
  C73      1.0000 0.26930  0.26930  0.00000  Biso   1.000  C 
  H26      1.0000 0.16950  0.27510  0.00000  Biso   1.000  H 
  C74      1.0000 0.25800  0.32050  0.00000  Biso   1.000  C 
  H27      1.0000 0.27510  0.16950  0.00000  Biso   1.000  H 
  C75      1.0000 0.32050  0.25800  0.00000  Biso   1.000  C 
  C76      1.0000 0.29420  0.35530  0.00000  Biso   1.000  C 
  H28      1.0000 0.22490  0.33050  0.00000  Biso   1.000  H 
  C77      1.0000 0.35530  0.29420  0.00000  Biso   1.000  C 
  H29      1.0000 0.33050  0.22490  0.00000  Biso   1.000  H 
  C78      1.0000 0.34350  0.34350  0.00000  Biso   1.000  C 
  C79      1.0000 0.38280  0.38280  0.00000  Biso   1.000  C 
  C80      1.0000 0.27405  0.41282  0.99999  Biso   1.000  C 
  H30      1.0000 0.38860  0.28510  0.00000  Biso   1.000  H 
  O51      1.0000 0.36740  0.42810  0.00000  Biso   1.000  O 
  O52      1.0000 0.42810  0.36740  0.00000  Biso   1.000  O 
  F25      1.0000 0.22026  0.41472  0.99998  Biso   1.000  F 
  F26      1.0000 0.28882  0.43947  0.95731  Biso   1.000  F 
  F27      1.0000 0.28880  0.43949  0.04265  Biso   1.000  F 
  F28      1.0000 0.20815  0.07888  0.93939  Biso   1.000  F 
  F29      1.0000 0.21455  0.05191  0.01905  Biso   1.000  F 
  F30      1.0000 0.27742  0.08989  0.98436  Biso   1.000  F 
  O53      1.0000 0.07190  0.86740  0.00000  Biso   1.000  O 
  C81      1.0000 0.11720  0.88280  0.00000  Biso   1.000  C 
  O54      1.0000 0.13260  0.92810  0.00000  Biso   1.000  O 
  C82      1.0000 0.15650  0.84350  0.00000  Biso   1.000  C 
  C83      1.0000 0.14470  0.79420  0.00000  Biso   1.000  C 
  C84      1.0000 0.20580  0.85530  0.00000  Biso   1.000  C 
  C85      1.0000 0.17950  0.75800  0.00000  Biso   1.000  C 
  H31      1.0000 0.11140  0.78510  0.00000  Biso   1.000  H 
  C86      1.0000 0.24200  0.82050  0.00000  Biso   1.000  C 
  C87      1.0000 0.22586  0.91115  0.01470  Biso   1.000  C 
  C88      1.0000 0.23070  0.76930  0.00000  Biso   1.000  C 
  C89      1.0000 0.26930  0.73070  0.00000  Biso   1.000  C 
  H32      1.0000 0.16950  0.72490  0.00000  Biso   1.000  H 
  C90      1.0000 0.25800  0.67950  0.00000  Biso   1.000  C 
  H33      1.0000 0.27510  0.83050  0.00000  Biso   1.000  H 
  C91      1.0000 0.32050  0.74200  0.00000  Biso   1.000  C 
  C92      1.0000 0.29420  0.64470  0.00000  Biso   1.000  C 
  H34      1.0000 0.22490  0.66950  0.00000  Biso   1.000  H 
  C93      1.0000 0.35530  0.70580  0.00000  Biso   1.000  C 
  H35      1.0000 0.33050  0.77510  0.00000  Biso   1.000  H 
  C94      1.0000 0.34350  0.65650  0.00000  Biso   1.000  C 
  C95      1.0000 0.38280  0.61720  0.00000  Biso   1.000  C 
  C96      1.0000 0.27405  0.58718  0.00001  Biso   1.000  C 
  H36      1.0000 0.38860  0.71490  0.00000  Biso   1.000  H 
  O55      1.0000 0.36740  0.57190  0.00000  Biso   1.000  O 
  O56      1.0000 0.42810  0.63260  0.00000  Biso   1.000  O 
  F31      1.0000 0.22026  0.58528  0.00002  Biso   1.000  F 
  F32      1.0000 0.28882  0.56053  0.04269  Biso   1.000  F 
  F33      1.0000 0.28880  0.56051  0.95735  Biso   1.000  F 
  F34      1.0000 0.20815  0.92112  0.06061  Biso   1.000  F 
  F35      1.0000 0.21455  0.94810  0.98096  Biso   1.000  F 
  F36      1.0000 0.27742  0.91011  0.01564  Biso   1.000  F 
  O57      1.0000 0.92810  0.86740  0.00000  Biso   1.000  O 
  C97      1.0000 0.88280  0.88280  0.00000  Biso   1.000  C 
  O58      1.0000 0.86740  0.92810  0.00000  Biso   1.000  O 
  C98      1.0000 0.84350  0.84350  0.00000  Biso   1.000  C 
  C99      1.0000 0.85530  0.79420  0.00000  Biso   1.000  C 
  C100     1.0000 0.79420  0.85530  0.00000  Biso   1.000  C 
  C101     1.0000 0.82050  0.75800  0.00000  Biso   1.000  C 
  H37      1.0000 0.88860  0.78510  0.00000  Biso   1.000  H 
  C102     1.0000 0.75800  0.82050  0.00000  Biso   1.000  C 
  C103     1.0000 0.77414  0.91115  0.98530  Biso   1.000  C 
  C104     1.0000 0.76930  0.76930  0.00000  Biso   1.000  C 
  C105     1.0000 0.73070  0.73070  0.00000  Biso   1.000  C 
  H38      1.0000 0.83050  0.72490  0.00000  Biso   1.000  H 
  C106     1.0000 0.74200  0.67950  0.00000  Biso   1.000  C 
  H39      1.0000 0.72490  0.83050  0.00000  Biso   1.000  H 
  C107     1.0000 0.67950  0.74200  0.00000  Biso   1.000  C 
  C108     1.0000 0.70580  0.64470  0.00000  Biso   1.000  C 
  H40      1.0000 0.77510  0.66950  0.00000  Biso   1.000  H 
  C109     1.0000 0.64470  0.70580  0.00000  Biso   1.000  C 
  H41      1.0000 0.66950  0.77510  0.00000  Biso   1.000  H 
  C110     1.0000 0.65650  0.65650  0.00000  Biso   1.000  C 
  C111     1.0000 0.61720  0.61720  0.00000  Biso   1.000  C 
  C112     1.0000 0.72595  0.58718  0.99999  Biso   1.000  C 
  H42      1.0000 0.61140  0.71490  0.00000  Biso   1.000  H 
  O59      1.0000 0.63260  0.57190  0.00000  Biso   1.000  O 
  O60      1.0000 0.57190  0.63260  0.00000  Biso   1.000  O 
  F37      1.0000 0.77974  0.58528  0.99998  Biso   1.000  F 
  F38      1.0000 0.71118  0.56053  0.95731  Biso   1.000  F 
  F39      1.0000 0.71119  0.56051  0.04265  Biso   1.000  F 
  F40      1.0000 0.79185  0.92112  0.93939  Biso   1.000  F 
  F41      1.0000 0.78545  0.94810  0.01905  Biso   1.000  F 
  F42      1.0000 0.72258  0.91011  0.98436  Biso   1.000  F 
  O61      1.0000 0.92810  0.13260  0.00000  Biso   1.000  O 
  C113     1.0000 0.88280  0.11720  0.00000  Biso   1.000  C 
  O62      1.0000 0.86740  0.07190  0.00000  Biso   1.000  O 
  C114     1.0000 0.84350  0.15650  0.00000  Biso   1.000  C 
  C115     1.0000 0.85530  0.20580  0.00000  Biso   1.000  C 
  C116     1.0000 0.79420  0.14470  0.00000  Biso   1.000  C 
  C117     1.0000 0.82050  0.24200  0.00000  Biso   1.000  C 
  H43      1.0000 0.88860  0.21490  0.00000  Biso   1.000  H 
  C118     1.0000 0.75800  0.17950  0.00000  Biso   1.000  C 
  C119     1.0000 0.77414  0.08885  0.01470  Biso   1.000  C 
  C120     1.0000 0.76930  0.23070  0.00000  Biso   1.000  C 
  C121     1.0000 0.73070  0.26930  0.00000  Biso   1.000  C 
  H44      1.0000 0.83050  0.27510  0.00000  Biso   1.000  H 
  C122     1.0000 0.74200  0.32050  0.00000  Biso   1.000  C 
  H45      1.0000 0.72490  0.16950  0.00000  Biso   1.000  H 
  C123     1.0000 0.67950  0.25800  0.00000  Biso   1.000  C 
  C124     1.0000 0.70580  0.35530  0.00000  Biso   1.000  C 
  H46      1.0000 0.77510  0.33050  0.00000  Biso   1.000  H 
  C125     1.0000 0.64470  0.29420  0.00000  Biso   1.000  C 
  H47      1.0000 0.66950  0.22490  0.00000  Biso   1.000  H 
  C126     1.0000 0.65650  0.34350  0.00000  Biso   1.000  C 
  C127     1.0000 0.61720  0.38280  0.00000  Biso   1.000  C 
  C128     1.0000 0.72595  0.41282  0.00001  Biso   1.000  C 
  H48      1.0000 0.61140  0.28510  0.00000  Biso   1.000  H 
  O63      1.0000 0.63260  0.42810  0.00000  Biso   1.000  O 
  O64      1.0000 0.57190  0.36740  0.00000  Biso   1.000  O 
  F43      1.0000 0.77974  0.41472  0.00002  Biso   1.000  F 
  F44      1.0000 0.71118  0.43947  0.04269  Biso   1.000  F 
  F45      1.0000 0.71119  0.43949  0.95735  Biso   1.000  F 
  F46      1.0000 0.79185  0.07888  0.06061  Biso   1.000  F 
  F47      1.0000 0.78545  0.05191  0.98096  Biso   1.000  F 
  F48      1.0000 0.72258  0.08989  0.01564  Biso   1.000  F 
  O65      1.0000 0.00000  0.07190  0.13260  Biso   1.000  O 
  C129     1.0000 0.00000  0.11720  0.11720  Biso   1.000  C 
  O66      1.0000 0.00000  0.13260  0.07190  Biso   1.000  O 
  C130     1.0000 0.00000  0.15650  0.15650  Biso   1.000  C 
  C131     1.0000 0.00000  0.14470  0.20580  Biso   1.000  C 
  C132     1.0000 0.00000  0.20580  0.14470  Biso   1.000  C 
  C133     1.0000 0.00000  0.17950  0.24200  Biso   1.000  C 
  H49      1.0000 0.00000  0.11140  0.21490  Biso   1.000  H 
  C134     1.0000 0.00000  0.24200  0.17950  Biso   1.000  C 
  C135     1.0000 0.98528  0.22587  0.08885  Biso   1.000  C 
  C136     1.0000 0.00000  0.23070  0.23070  Biso   1.000  C 
  C137     1.0000 0.00000  0.26930  0.26930  Biso   1.000  C 
  H50      1.0000 0.00000  0.16950  0.27510  Biso   1.000  H 
  C138     1.0000 0.00000  0.25800  0.32050  Biso   1.000  C 
  H51      1.0000 0.00000  0.27510  0.16950  Biso   1.000  H 
  C139     1.0000 0.00000  0.32050  0.25800  Biso   1.000  C 
  C140     1.0000 0.00000  0.29420  0.35530  Biso   1.000  C 
  H52      1.0000 0.00000  0.22490  0.33050  Biso   1.000  H 
  C141     1.0000 0.00000  0.35530  0.29420  Biso   1.000  C 
  H53      1.0000 0.00000  0.33050  0.22490  Biso   1.000  H 
  C142     1.0000 0.00000  0.34350  0.34350  Biso   1.000  C 
  C143     1.0000 0.00000  0.38280  0.38280  Biso   1.000  C 
  C144     1.0000 0.99993  0.27405  0.41282  Biso   1.000  C 
  H54      1.0000 0.00000  0.38860  0.28510  Biso   1.000  H 
  O67      1.0000 0.00000  0.36740  0.42810  Biso   1.000  O 
  O68      1.0000 0.00000  0.42810  0.36740  Biso   1.000  O 
  F49      1.0000 0.99987  0.22025  0.41472  Biso   1.000  F 
  F50      1.0000 0.95724  0.28884  0.43943  Biso   1.000  F 
  F51      1.0000 0.04258  0.28877  0.43954  Biso   1.000  F 
  F52      1.0000 0.93936  0.20818  0.07889  Biso   1.000  F 
  F53      1.0000 0.01902  0.21456  0.05190  Biso   1.000  F 
  F54      1.0000 0.98437  0.27743  0.08990  Biso   1.000  F 
  O69      1.0000 0.00000  0.07190  0.86740  Biso   1.000  O 
  C145     1.0000 0.00000  0.11720  0.88280  Biso   1.000  C 
  O70      1.0000 0.00000  0.13260  0.92810  Biso   1.000  O 
  C146     1.0000 0.00000  0.15650  0.84350  Biso   1.000  C 
  C147     1.0000 0.00000  0.14470  0.79420  Biso   1.000  C 
  C148     1.0000 0.00000  0.20580  0.85530  Biso   1.000  C 
  C149     1.0000 0.00000  0.17950  0.75800  Biso   1.000  C 
  H55      1.0000 0.00000  0.11140  0.78510  Biso   1.000  H 
  C150     1.0000 0.00000  0.24200  0.82050  Biso   1.000  C 
  C151     1.0000 0.01472  0.22587  0.91115  Biso   1.000  C 
  C152     1.0000 0.00000  0.23070  0.76930  Biso   1.000  C 
  C153     1.0000 0.00000  0.26930  0.73070  Biso   1.000  C 
  H56      1.0000 0.00000  0.16950  0.72490  Biso   1.000  H 
  C154     1.0000 0.00000  0.25800  0.67950  Biso   1.000  C 
  H57      1.0000 0.00000  0.27510  0.83050  Biso   1.000  H 
  C155     1.0000 0.00000  0.32050  0.74200  Biso   1.000  C 
  C156     1.0000 0.00000  0.29420  0.64470  Biso   1.000  C 
  H58      1.0000 0.00000  0.22490  0.66950  Biso   1.000  H 
  C157     1.0000 0.00000  0.35530  0.70580  Biso   1.000  C 
  H59      1.0000 0.00000  0.33050  0.77510  Biso   1.000  H 
  C158     1.0000 0.00000  0.34350  0.65650  Biso   1.000  C 
  C159     1.0000 0.00000  0.38280  0.61720  Biso   1.000  C 
  C160     1.0000 0.00007  0.27405  0.58718  Biso   1.000  C 
  H60      1.0000 0.00000  0.38860  0.71490  Biso   1.000  H 
  O71      1.0000 0.00000  0.36740  0.57190  Biso   1.000  O 
  O72      1.0000 0.00000  0.42810  0.63260  Biso   1.000  O 
  F55      1.0000 0.00013  0.22025  0.58528  Biso   1.000  F 
  F56      1.0000 0.04276  0.28884  0.56057  Biso   1.000  F 
  F57      1.0000 0.95742  0.28877  0.56046  Biso   1.000  F 
  F58      1.0000 0.06064  0.20818  0.92111  Biso   1.000  F 
  F59      1.0000 0.98099  0.21456  0.94810  Biso   1.000  F 
  F60      1.0000 0.01563  0.27743  0.91010  Biso   1.000  F 
  O73      1.0000 0.00000  0.92810  0.86740  Biso   1.000  O 
  C161     1.0000 0.00000  0.88280  0.88280  Biso   1.000  C 
  O74      1.0000 0.00000  0.86740  0.92810  Biso   1.000  O 
  C162     1.0000 0.00000  0.84350  0.84350  Biso   1.000  C 
  C163     1.0000 0.00000  0.85530  0.79420  Biso   1.000  C 
  C164     1.0000 0.00000  0.79420  0.85530  Biso   1.000  C 
  C165     1.0000 0.00000  0.82050  0.75800  Biso   1.000  C 
  H61      1.0000 0.00000  0.88860  0.78510  Biso   1.000  H 
  C166     1.0000 0.00000  0.75800  0.82050  Biso   1.000  C 
  C167     1.0000 0.98528  0.77413  0.91115  Biso   1.000  C 
  C168     1.0000 0.00000  0.76930  0.76930  Biso   1.000  C 
  C169     1.0000 0.00000  0.73070  0.73070  Biso   1.000  C 
  H62      1.0000 0.00000  0.83050  0.72490  Biso   1.000  H 
  C170     1.0000 0.00000  0.74200  0.67950  Biso   1.000  C 
  H63      1.0000 0.00000  0.72490  0.83050  Biso   1.000  H 
  C171     1.0000 0.00000  0.67950  0.74200  Biso   1.000  C 
  C172     1.0000 0.00000  0.70580  0.64470  Biso   1.000  C 
  H64      1.0000 0.00000  0.77510  0.66950  Biso   1.000  H 
  C173     1.0000 0.00000  0.64470  0.70580  Biso   1.000  C 
  H65      1.0000 0.00000  0.66950  0.77510  Biso   1.000  H 
  C174     1.0000 0.00000  0.65650  0.65650  Biso   1.000  C 
  C175     1.0000 0.00000  0.61720  0.61720  Biso   1.000  C 
  C176     1.0000 0.99993  0.72595  0.58718  Biso   1.000  C 
  H66      1.0000 0.00000  0.61140  0.71490  Biso   1.000  H 
  O75      1.0000 0.00000  0.63260  0.57190  Biso   1.000  O 
  O76      1.0000 0.00000  0.57190  0.63260  Biso   1.000  O 
  F61      1.0000 0.99987  0.77974  0.58528  Biso   1.000  F 
  F62      1.0000 0.95724  0.71115  0.56057  Biso   1.000  F 
  F63      1.0000 0.04258  0.71123  0.56046  Biso   1.000  F 
  F64      1.0000 0.93936  0.79182  0.92111  Biso   1.000  F 
  F65      1.0000 0.01902  0.78544  0.94810  Biso   1.000  F 
  F66      1.0000 0.98437  0.72257  0.91010  Biso   1.000  F 
  O77      1.0000 0.00000  0.92810  0.13260  Biso   1.000  O 
  C177     1.0000 0.00000  0.88280  0.11720  Biso   1.000  C 
  O78      1.0000 0.00000  0.86740  0.07190  Biso   1.000  O 
  C178     1.0000 0.00000  0.84350  0.15650  Biso   1.000  C 
  C179     1.0000 0.00000  0.85530  0.20580  Biso   1.000  C 
  C180     1.0000 0.00000  0.79420  0.14470  Biso   1.000  C 
  C181     1.0000 0.00000  0.82050  0.24200  Biso   1.000  C 
  H67      1.0000 0.00000  0.88860  0.21490  Biso   1.000  H 
  C182     1.0000 0.00000  0.75800  0.17950  Biso   1.000  C 
  C183     1.0000 0.01472  0.77413  0.08885  Biso   1.000  C 
  C184     1.0000 0.00000  0.76930  0.23070  Biso   1.000  C 
  C185     1.0000 0.00000  0.73070  0.26930  Biso   1.000  C 
  H68      1.0000 0.00000  0.83050  0.27510  Biso   1.000  H 
  C186     1.0000 0.00000  0.74200  0.32050  Biso   1.000  C 
  H69      1.0000 0.00000  0.72490  0.16950  Biso   1.000  H 
  C187     1.0000 0.00000  0.67950  0.25800  Biso   1.000  C 
  C188     1.0000 0.00000  0.70580  0.35530  Biso   1.000  C 
  H70      1.0000 0.00000  0.77510  0.33050  Biso   1.000  H 
  C189     1.0000 0.00000  0.64470  0.29420  Biso   1.000  C 
  H71      1.0000 0.00000  0.66950  0.22490  Biso   1.000  H 
  C190     1.0000 0.00000  0.65650  0.34350  Biso   1.000  C 
  C191     1.0000 0.00000  0.61720  0.38280  Biso   1.000  C 
  C192     1.0000 0.00007  0.72595  0.41282  Biso   1.000  C 
  H72      1.0000 0.00000  0.61140  0.28510  Biso   1.000  H 
  O79      1.0000 0.00000  0.63260  0.42810  Biso   1.000  O 
  O80      1.0000 0.00000  0.57190  0.36740  Biso   1.000  O 
  F67      1.0000 0.00013  0.77974  0.41472  Biso   1.000  F 
  F68      1.0000 0.04276  0.71115  0.43943  Biso   1.000  F 
  F69      1.0000 0.95742  0.71123  0.43954  Biso   1.000  F 
  F70      1.0000 0.06064  0.79182  0.07889  Biso   1.000  F 
  F71      1.0000 0.98099  0.78544  0.05190  Biso   1.000  F 
  F72      1.0000 0.01563  0.72257  0.08990  Biso   1.000  F 
  O81      1.0000 0.13260  0.50000  0.57190  Biso   1.000  O 
  C193     1.0000 0.11720  0.50000  0.61720  Biso   1.000  C 
  O82      1.0000 0.07190  0.50000  0.63260  Biso   1.000  O 
  C194     1.0000 0.15650  0.50000  0.65650  Biso   1.000  C 
  C195     1.0000 0.20580  0.50000  0.64470  Biso   1.000  C 
  C196     1.0000 0.14470  0.50000  0.70580  Biso   1.000  C 
  C197     1.0000 0.24200  0.50000  0.67950  Biso   1.000  C 
  H73      1.0000 0.21490  0.50000  0.61140  Biso   1.000  H 
  C198     1.0000 0.17950  0.50000  0.74200  Biso   1.000  C 
  C199     1.0000 0.08882  0.48540  0.72575  Biso   1.000  C 
  C200     1.0000 0.23070  0.50000  0.73070  Biso   1.000  C 
  C201     1.0000 0.26930  0.50000  0.76930  Biso   1.000  C 
  H74      1.0000 0.27510  0.50000  0.66950  Biso   1.000  H 
  C202     1.0000 0.32050  0.50000  0.75800  Biso   1.000  C 
  H75      1.0000 0.16950  0.50000  0.77510  Biso   1.000  H 
  C203     1.0000 0.25800  0.50000  0.82050  Biso   1.000  C 
  C204     1.0000 0.35530  0.50000  0.79420  Biso   1.000  C 
  H76      1.0000 0.33050  0.50000  0.72490  Biso   1.000  H 
  C205     1.0000 0.29420  0.50000  0.85530  Biso   1.000  C 
  H77      1.0000 0.22490  0.50000  0.83050  Biso   1.000  H 
  C206     1.0000 0.34350  0.50000  0.84350  Biso   1.000  C 
  C207     1.0000 0.38280  0.50000  0.88280  Biso   1.000  C 
  C208     1.0000 0.41282  0.49999  0.77405  Biso   1.000  C 
  H78      1.0000 0.28510  0.50000  0.88860  Biso   1.000  H 
  O83      1.0000 0.42810  0.50000  0.86740  Biso   1.000  O 
  O84      1.0000 0.36740  0.50000  0.92810  Biso   1.000  O 
  F73      1.0000 0.41472  0.49998  0.72026  Biso   1.000  F 
  F74      1.0000 0.43947  0.45731  0.78882  Biso   1.000  F 
  F75      1.0000 0.43949  0.54265  0.78881  Biso   1.000  F 
  F76      1.0000 0.07875  0.43962  0.70774  Biso   1.000  F 
  F77      1.0000 0.05196  0.51932  0.71444  Biso   1.000  F 
  F78      1.0000 0.08981  0.48427  0.77728  Biso   1.000  F 
  O85      1.0000 0.86740  0.50000  0.57190  Biso   1.000  O 
  C209     1.0000 0.88280  0.50000  0.61720  Biso   1.000  C 
  O86      1.0000 0.92810  0.50000  0.63260  Biso   1.000  O 
  C210     1.0000 0.84350  0.50000  0.65650  Biso   1.000  C 
  C211     1.0000 0.79420  0.50000  0.64470  Biso   1.000  C 
  C212     1.0000 0.85530  0.50000  0.70580  Biso   1.000  C 
  C213     1.0000 0.75800  0.50000  0.67950  Biso   1.000  C 
  H79      1.0000 0.78510  0.50000  0.61140  Biso   1.000  H 
  C214     1.0000 0.82050  0.50000  0.74200  Biso   1.000  C 
  C215     1.0000 0.91118  0.51460  0.72575  Biso   1.000  C 
  C216     1.0000 0.76930  0.50000  0.73070  Biso   1.000  C 
  C217     1.0000 0.73070  0.50000  0.76930  Biso   1.000  C 
  H80      1.0000 0.72490  0.50000  0.66950  Biso   1.000  H 
  C218     1.0000 0.67950  0.50000  0.75800  Biso   1.000  C 
  H81      1.0000 0.83050  0.50000  0.77510  Biso   1.000  H 
  C219     1.0000 0.74200  0.50000  0.82050  Biso   1.000  C 
  C220     1.0000 0.64470  0.50000  0.79420  Biso   1.000  C 
  H82      1.0000 0.66950  0.50000  0.72490  Biso   1.000  H 
  C221     1.0000 0.70580  0.50000  0.85530  Biso   1.000  C 
  H83      1.0000 0.77510  0.50000  0.83050  Biso   1.000  H 
  C222     1.0000 0.65650  0.50000  0.84350  Biso   1.000  C 
  C223     1.0000 0.61720  0.50000  0.88280  Biso   1.000  C 
  C224     1.0000 0.58718  0.50001  0.77405  Biso   1.000  C 
  H84      1.0000 0.71490  0.50000  0.88860  Biso   1.000  H 
  O87      1.0000 0.57190  0.50000  0.86740  Biso   1.000  O 
  O88      1.0000 0.63260  0.50000  0.92810  Biso   1.000  O 
  F79      1.0000 0.58528  0.50002  0.72026  Biso   1.000  F 
  F80      1.0000 0.56053  0.54269  0.78882  Biso   1.000  F 
  F81      1.0000 0.56051  0.45735  0.78881  Biso   1.000  F 
  F82      1.0000 0.92125  0.56038  0.70774  Biso   1.000  F 
  F83      1.0000 0.94804  0.48068  0.71444  Biso   1.000  F 
  F84      1.0000 0.91019  0.51573  0.77728  Biso   1.000  F 
  O89      1.0000 0.86740  0.50000  0.42810  Biso   1.000  O 
  C225     1.0000 0.88280  0.50000  0.38280  Biso   1.000  C 
  O90      1.0000 0.92810  0.50000  0.36740  Biso   1.000  O 
  C226     1.0000 0.84350  0.50000  0.34350  Biso   1.000  C 
  C227     1.0000 0.79420  0.50000  0.35530  Biso   1.000  C 
  C228     1.0000 0.85530  0.50000  0.29420  Biso   1.000  C 
  C229     1.0000 0.75800  0.50000  0.32050  Biso   1.000  C 
  H85      1.0000 0.78510  0.50000  0.38860  Biso   1.000  H 
  C230     1.0000 0.82050  0.50000  0.25800  Biso   1.000  C 
  C231     1.0000 0.91118  0.48540  0.27425  Biso   1.000  C 
  C232     1.0000 0.76930  0.50000  0.26930  Biso   1.000  C 
  C233     1.0000 0.73070  0.50000  0.23070  Biso   1.000  C 
  H86      1.0000 0.72490  0.50000  0.33050  Biso   1.000  H 
  C234     1.0000 0.67950  0.50000  0.24200  Biso   1.000  C 
  H87      1.0000 0.83050  0.50000  0.22490  Biso   1.000  H 
  C235     1.0000 0.74200  0.50000  0.17950  Biso   1.000  C 
  C236     1.0000 0.64470  0.50000  0.20580  Biso   1.000  C 
  H88      1.0000 0.66950  0.50000  0.27510  Biso   1.000  H 
  C237     1.0000 0.70580  0.50000  0.14470  Biso   1.000  C 
  H89      1.0000 0.77510  0.50000  0.16950  Biso   1.000  H 
  C238     1.0000 0.65650  0.50000  0.15650  Biso   1.000  C 
  C239     1.0000 0.61720  0.50000  0.11720  Biso   1.000  C 
  C240     1.0000 0.58718  0.49999  0.22595  Biso   1.000  C 
  H90      1.0000 0.71490  0.50000  0.11140  Biso   1.000  H 
  O91      1.0000 0.57190  0.50000  0.13260  Biso   1.000  O 
  O92      1.0000 0.63260  0.50000  0.07190  Biso   1.000  O 
  F85      1.0000 0.58528  0.49998  0.27974  Biso   1.000  F 
  F86      1.0000 0.56053  0.45731  0.21118  Biso   1.000  F 
  F87      1.0000 0.56051  0.54265  0.21120  Biso   1.000  F 
  F88      1.0000 0.92125  0.43962  0.29225  Biso   1.000  F 
  F89      1.0000 0.94804  0.51932  0.28556  Biso   1.000  F 
  F90      1.0000 0.91019  0.48427  0.22272  Biso   1.000  F 
  O93      1.0000 0.13260  0.50000  0.42810  Biso   1.000  O 
  C241     1.0000 0.11720  0.50000  0.38280  Biso   1.000  C 
  O94      1.0000 0.07190  0.50000  0.36740  Biso   1.000  O 
  C242     1.0000 0.15650  0.50000  0.34350  Biso   1.000  C 
  C243     1.0000 0.20580  0.50000  0.35530  Biso   1.000  C 
  C244     1.0000 0.14470  0.50000  0.29420  Biso   1.000  C 
  C245     1.0000 0.24200  0.50000  0.32050  Biso   1.000  C 
  H91      1.0000 0.21490  0.50000  0.38860  Biso   1.000  H 
  C246     1.0000 0.17950  0.50000  0.25800  Biso   1.000  C 
  C247     1.0000 0.08882  0.51460  0.27425  Biso   1.000  C 
  C248     1.0000 0.23070  0.50000  0.26930  Biso   1.000  C 
  C249     1.0000 0.26930  0.50000  0.23070  Biso   1.000  C 
  H92      1.0000 0.27510  0.50000  0.33050  Biso   1.000  H 
  C250     1.0000 0.32050  0.50000  0.24200  Biso   1.000  C 
  H93      1.0000 0.16950  0.50000  0.22490  Biso   1.000  H 
  C251     1.0000 0.25800  0.50000  0.17950  Biso   1.000  C 
  C252     1.0000 0.35530  0.50000  0.20580  Biso   1.000  C 
  H94      1.0000 0.33050  0.50000  0.27510  Biso   1.000  H 
  C253     1.0000 0.29420  0.50000  0.14470  Biso   1.000  C 
  H95      1.0000 0.22490  0.50000  0.16950  Biso   1.000  H 
  C254     1.0000 0.34350  0.50000  0.15650  Biso   1.000  C 
  C255     1.0000 0.38280  0.50000  0.11720  Biso   1.000  C 
  C256     1.0000 0.41282  0.50001  0.22595  Biso   1.000  C 
  H96      1.0000 0.28510  0.50000  0.11140  Biso   1.000  H 
  O95      1.0000 0.42810  0.50000  0.13260  Biso   1.000  O 
  O96      1.0000 0.36740  0.50000  0.07190  Biso   1.000  O 
  F91      1.0000 0.41472  0.50002  0.27974  Biso   1.000  F 
  F92      1.0000 0.43947  0.54269  0.21118  Biso   1.000  F 
  F93      1.0000 0.43949  0.45735  0.21120  Biso   1.000  F 
  F94      1.0000 0.07875  0.56038  0.29225  Biso   1.000  F 
  F95      1.0000 0.05196  0.48068  0.28556  Biso   1.000  F 
  F96      1.0000 0.08981  0.51573  0.22272  Biso   1.000  F 
  O97      1.0000 0.07190  0.63260  0.50000  Biso   1.000  O 
  C257     1.0000 0.11720  0.61720  0.50000  Biso   1.000  C 
  O98      1.0000 0.13260  0.57190  0.50000  Biso   1.000  O 
  C258     1.0000 0.15650  0.65650  0.50000  Biso   1.000  C 
  C259     1.0000 0.14470  0.70580  0.50000  Biso   1.000  C 
  C260     1.0000 0.20580  0.64470  0.50000  Biso   1.000  C 
  C261     1.0000 0.17950  0.74200  0.50000  Biso   1.000  C 
  H97      1.0000 0.11140  0.71490  0.50000  Biso   1.000  H 
  C262     1.0000 0.24200  0.67950  0.50000  Biso   1.000  C 
  C263     1.0000 0.22569  0.58880  0.48545  Biso   1.000  C 
  C264     1.0000 0.23070  0.73070  0.50000  Biso   1.000  C 
  C265     1.0000 0.26930  0.76930  0.50000  Biso   1.000  C 
  H98      1.0000 0.16950  0.77510  0.50000  Biso   1.000  H 
  C266     1.0000 0.25800  0.82050  0.50000  Biso   1.000  C 
  H99      1.0000 0.27510  0.66950  0.50000  Biso   1.000  H 
  C267     1.0000 0.32050  0.75800  0.50000  Biso   1.000  C 
  C268     1.0000 0.29420  0.85530  0.50000  Biso   1.000  C 
  H100     1.0000 0.22490  0.83050  0.50000  Biso   1.000  H 
  C269     1.0000 0.35530  0.79420  0.50000  Biso   1.000  C 
  H101     1.0000 0.33050  0.72490  0.50000  Biso   1.000  H 
  C270     1.0000 0.34350  0.84350  0.50000  Biso   1.000  C 
  C271     1.0000 0.38280  0.88280  0.50000  Biso   1.000  C 
  C272     1.0000 0.27405  0.91282  0.49996  Biso   1.000  C 
  H102     1.0000 0.38860  0.78510  0.50000  Biso   1.000  H 
  O99      1.0000 0.36740  0.92810  0.50000  Biso   1.000  O 
  O100     1.0000 0.42810  0.86740  0.50000  Biso   1.000  O 
  F97      1.0000 0.22025  0.91472  0.49993  Biso   1.000  F 
  F98      1.0000 0.28883  0.93946  0.45728  Biso   1.000  F 
  F99      1.0000 0.28879  0.93951  0.54262  Biso   1.000  F 
  F100     1.0000 0.20751  0.57869  0.43975  Biso   1.000  F 
  F101     1.0000 0.21439  0.55199  0.51945  Biso   1.000  F 
  F102     1.0000 0.27720  0.58977  0.48419  Biso   1.000  F 
  O101     1.0000 0.07190  0.36740  0.50000  Biso   1.000  O 
  C273     1.0000 0.11720  0.38280  0.50000  Biso   1.000  C 
  O102     1.0000 0.13260  0.42810  0.50000  Biso   1.000  O 
  C274     1.0000 0.15650  0.34350  0.50000  Biso   1.000  C 
  C275     1.0000 0.14470  0.29420  0.50000  Biso   1.000  C 
  C276     1.0000 0.20580  0.35530  0.50000  Biso   1.000  C 
  C277     1.0000 0.17950  0.25800  0.50000  Biso   1.000  C 
  H103     1.0000 0.11140  0.28510  0.50000  Biso   1.000  H 
  C278     1.0000 0.24200  0.32050  0.50000  Biso   1.000  C 
  C279     1.0000 0.22569  0.41120  0.51455  Biso   1.000  C 
  C280     1.0000 0.23070  0.26930  0.50000  Biso   1.000  C 
  C281     1.0000 0.26930  0.23070  0.50000  Biso   1.000  C 
  H104     1.0000 0.16950  0.22490  0.50000  Biso   1.000  H 
  C282     1.0000 0.25800  0.17950  0.50000  Biso   1.000  C 
  H105     1.0000 0.27510  0.33050  0.50000  Biso   1.000  H 
  C283     1.0000 0.32050  0.24200  0.50000  Biso   1.000  C 
  C284     1.0000 0.29420  0.14470  0.50000  Biso   1.000  C 
  H106     1.0000 0.22490  0.16950  0.50000  Biso   1.000  H 
  C285     1.0000 0.35530  0.20580  0.50000  Biso   1.000  C 
  H107     1.0000 0.33050  0.27510  0.50000  Biso   1.000  H 
  C286     1.0000 0.34350  0.15650  0.50000  Biso   1.000  C 
  C287     1.0000 0.38280  0.11720  0.50000  Biso   1.000  C 
  C288     1.0000 0.27405  0.08718  0.50004  Biso   1.000  C 
  H108     1.0000 0.38860  0.21490  0.50000  Biso   1.000  H 
  O103     1.0000 0.36740  0.07190  0.50000  Biso   1.000  O 
  O104     1.0000 0.42810  0.13260  0.50000  Biso   1.000  O 
  F103     1.0000 0.22025  0.08528  0.50007  Biso   1.000  F 
  F104     1.0000 0.28883  0.06054  0.54272  Biso   1.000  F 
  F105     1.0000 0.28879  0.06049  0.45738  Biso   1.000  F 
  F106     1.0000 0.20751  0.42131  0.56025  Biso   1.000  F 
  F107     1.0000 0.21439  0.44801  0.48055  Biso   1.000  F 
  F108     1.0000 0.27720  0.41023  0.51581  Biso   1.000  F 
  O105     1.0000 0.92810  0.36740  0.50000  Biso   1.000  O 
  C289     1.0000 0.88280  0.38280  0.50000  Biso   1.000  C 
  O106     1.0000 0.86740  0.42810  0.50000  Biso   1.000  O 
  C290     1.0000 0.84350  0.34350  0.50000  Biso   1.000  C 
  C291     1.0000 0.85530  0.29420  0.50000  Biso   1.000  C 
  C292     1.0000 0.79420  0.35530  0.50000  Biso   1.000  C 
  C293     1.0000 0.82050  0.25800  0.50000  Biso   1.000  C 
  H109     1.0000 0.88860  0.28510  0.50000  Biso   1.000  H 
  C294     1.0000 0.75800  0.32050  0.50000  Biso   1.000  C 
  C295     1.0000 0.77432  0.41120  0.48545  Biso   1.000  C 
  C296     1.0000 0.76930  0.26930  0.50000  Biso   1.000  C 
  C297     1.0000 0.73070  0.23070  0.50000  Biso   1.000  C 
  H110     1.0000 0.83050  0.22490  0.50000  Biso   1.000  H 
  C298     1.0000 0.74200  0.17950  0.50000  Biso   1.000  C 
  H111     1.0000 0.72490  0.33050  0.50000  Biso   1.000  H 
  C299     1.0000 0.67950  0.24200  0.50000  Biso   1.000  C 
  C300     1.0000 0.70580  0.14470  0.50000  Biso   1.000  C 
  H112     1.0000 0.77510  0.16950  0.50000  Biso   1.000  H 
  C301     1.0000 0.64470  0.20580  0.50000  Biso   1.000  C 
  H113     1.0000 0.66950  0.27510  0.50000  Biso   1.000  H 
  C302     1.0000 0.65650  0.15650  0.50000  Biso   1.000  C 
  C303     1.0000 0.61720  0.11720  0.50000  Biso   1.000  C 
  C304     1.0000 0.72595  0.08718  0.49996  Biso   1.000  C 
  H114     1.0000 0.61140  0.21490  0.50000  Biso   1.000  H 
  O107     1.0000 0.63260  0.07190  0.50000  Biso   1.000  O 
  O108     1.0000 0.57190  0.13260  0.50000  Biso   1.000  O 
  F109     1.0000 0.77974  0.08528  0.49993  Biso   1.000  F 
  F110     1.0000 0.71117  0.06054  0.45728  Biso   1.000  F 
  F111     1.0000 0.71121  0.06049  0.54262  Biso   1.000  F 
  F112     1.0000 0.79249  0.42131  0.43975  Biso   1.000  F 
  F113     1.0000 0.78561  0.44801  0.51945  Biso   1.000  F 
  F114     1.0000 0.72280  0.41023  0.48419  Biso   1.000  F 
  O109     1.0000 0.92810  0.63260  0.50000  Biso   1.000  O 
  C305     1.0000 0.88280  0.61720  0.50000  Biso   1.000  C 
  O110     1.0000 0.86740  0.57190  0.50000  Biso   1.000  O 
  C306     1.0000 0.84350  0.65650  0.50000  Biso   1.000  C 
  C307     1.0000 0.85530  0.70580  0.50000  Biso   1.000  C 
  C308     1.0000 0.79420  0.64470  0.50000  Biso   1.000  C 
  C309     1.0000 0.82050  0.74200  0.50000  Biso   1.000  C 
  H115     1.0000 0.88860  0.71490  0.50000  Biso   1.000  H 
  C310     1.0000 0.75800  0.67950  0.50000  Biso   1.000  C 
  C311     1.0000 0.77432  0.58880  0.51455  Biso   1.000  C 
  C312     1.0000 0.76930  0.73070  0.50000  Biso   1.000  C 
  C313     1.0000 0.73070  0.76930  0.50000  Biso   1.000  C 
  H116     1.0000 0.83050  0.77510  0.50000  Biso   1.000  H 
  C314     1.0000 0.74200  0.82050  0.50000  Biso   1.000  C 
  H117     1.0000 0.72490  0.66950  0.50000  Biso   1.000  H 
  C315     1.0000 0.67950  0.75800  0.50000  Biso   1.000  C 
  C316     1.0000 0.70580  0.85530  0.50000  Biso   1.000  C 
  H118     1.0000 0.77510  0.83050  0.50000  Biso   1.000  H 
  C317     1.0000 0.64470  0.79420  0.50000  Biso   1.000  C 
  H119     1.0000 0.66950  0.72490  0.50000  Biso   1.000  H 
  C318     1.0000 0.65650  0.84350  0.50000  Biso   1.000  C 
  C319     1.0000 0.61720  0.88280  0.50000  Biso   1.000  C 
  C320     1.0000 0.72595  0.91282  0.50004  Biso   1.000  C 
  H120     1.0000 0.61140  0.78510  0.50000  Biso   1.000  H 
  O111     1.0000 0.63260  0.92810  0.50000  Biso   1.000  O 
  O112     1.0000 0.57190  0.86740  0.50000  Biso   1.000  O 
  F115     1.0000 0.77974  0.91472  0.50007  Biso   1.000  F 
  F116     1.0000 0.71117  0.93946  0.54272  Biso   1.000  F 
  F117     1.0000 0.71121  0.93951  0.45738  Biso   1.000  F 
  F118     1.0000 0.79249  0.57869  0.56025  Biso   1.000  F 
  F119     1.0000 0.78561  0.55199  0.48055  Biso   1.000  F 
  F120     1.0000 0.72280  0.58977  0.51581  Biso   1.000  F 
  O113     1.0000 0.50000  0.07190  0.63260  Biso   1.000  O 
  C321     1.0000 0.50000  0.11720  0.61720  Biso   1.000  C 
  O114     1.0000 0.50000  0.13260  0.57190  Biso   1.000  O 
  C322     1.0000 0.50000  0.15650  0.65650  Biso   1.000  C 
  C323     1.0000 0.50000  0.14470  0.70580  Biso   1.000  C 
  C324     1.0000 0.50000  0.20580  0.64470  Biso   1.000  C 
  C325     1.0000 0.50000  0.17950  0.74200  Biso   1.000  C 
  H121     1.0000 0.50000  0.11140  0.71490  Biso   1.000  H 
  C326     1.0000 0.50000  0.24200  0.67950  Biso   1.000  C 
  C327     1.0000 0.48547  0.22571  0.58880  Biso   1.000  C 
  C328     1.0000 0.50000  0.23070  0.73070  Biso   1.000  C 
  C329     1.0000 0.50000  0.26930  0.76930  Biso   1.000  C 
  H122     1.0000 0.50000  0.16950  0.77510  Biso   1.000  H 
  C330     1.0000 0.50000  0.25800  0.82050  Biso   1.000  C 
  H123     1.0000 0.50000  0.27510  0.66950  Biso   1.000  H 
  C331     1.0000 0.50000  0.32050  0.75800  Biso   1.000  C 
  C332     1.0000 0.50000  0.29420  0.85530  Biso   1.000  C 
  H124     1.0000 0.50000  0.22490  0.83050  Biso   1.000  H 
  C333     1.0000 0.50000  0.35530  0.79420  Biso   1.000  C 
  H125     1.0000 0.50000  0.33050  0.72490  Biso   1.000  H 
  C334     1.0000 0.50000  0.34350  0.84350  Biso   1.000  C 
  C335     1.0000 0.50000  0.38280  0.88280  Biso   1.000  C 
  C336     1.0000 0.49999  0.27405  0.91282  Biso   1.000  C 
  H126     1.0000 0.50000  0.38860  0.78510  Biso   1.000  H 
  O115     1.0000 0.50000  0.36740  0.92810  Biso   1.000  O 
  O116     1.0000 0.50000  0.42810  0.86740  Biso   1.000  O 
  F121     1.0000 0.49999  0.22026  0.91472  Biso   1.000  F 
  F122     1.0000 0.45732  0.28882  0.93948  Biso   1.000  F 
  F123     1.0000 0.54266  0.28881  0.93949  Biso   1.000  F 
  F124     1.0000 0.43973  0.20762  0.57869  Biso   1.000  F 
  F125     1.0000 0.51945  0.21440  0.55199  Biso   1.000  F 
  F126     1.0000 0.48427  0.27723  0.58978  Biso   1.000  F 
  O117     1.0000 0.50000  0.07190  0.36740  Biso   1.000  O 
  C337     1.0000 0.50000  0.11720  0.38280  Biso   1.000  C 
  O118     1.0000 0.50000  0.13260  0.42810  Biso   1.000  O 
  C338     1.0000 0.50000  0.15650  0.34350  Biso   1.000  C 
  C339     1.0000 0.50000  0.14470  0.29420  Biso   1.000  C 
  C340     1.0000 0.50000  0.20580  0.35530  Biso   1.000  C 
  C341     1.0000 0.50000  0.17950  0.25800  Biso   1.000  C 
  H127     1.0000 0.50000  0.11140  0.28510  Biso   1.000  H 
  C342     1.0000 0.50000  0.24200  0.32050  Biso   1.000  C 
  C343     1.0000 0.51453  0.22571  0.41120  Biso   1.000  C 
  C344     1.0000 0.50000  0.23070  0.26930  Biso   1.000  C 
  C345     1.0000 0.50000  0.26930  0.23070  Biso   1.000  C 
  H128     1.0000 0.50000  0.16950  0.22490  Biso   1.000  H 
  C346     1.0000 0.50000  0.25800  0.17950  Biso   1.000  C 
  H129     1.0000 0.50000  0.27510  0.33050  Biso   1.000  H 
  C347     1.0000 0.50000  0.32050  0.24200  Biso   1.000  C 
  C348     1.0000 0.50000  0.29420  0.14470  Biso   1.000  C 
  H130     1.0000 0.50000  0.22490  0.16950  Biso   1.000  H 
  C349     1.0000 0.50000  0.35530  0.20580  Biso   1.000  C 
  H131     1.0000 0.50000  0.33050  0.27510  Biso   1.000  H 
  C350     1.0000 0.50000  0.34350  0.15650  Biso   1.000  C 
  C351     1.0000 0.50000  0.38280  0.11720  Biso   1.000  C 
  C352     1.0000 0.50001  0.27405  0.08718  Biso   1.000  C 
  H132     1.0000 0.50000  0.38860  0.21490  Biso   1.000  H 
  O119     1.0000 0.50000  0.36740  0.07190  Biso   1.000  O 
  O120     1.0000 0.50000  0.42810  0.13260  Biso   1.000  O 
  F127     1.0000 0.50001  0.22026  0.08528  Biso   1.000  F 
  F128     1.0000 0.54268  0.28882  0.06052  Biso   1.000  F 
  F129     1.0000 0.45734  0.28881  0.06051  Biso   1.000  F 
  F130     1.0000 0.56027  0.20762  0.42131  Biso   1.000  F 
  F131     1.0000 0.48055  0.21440  0.44801  Biso   1.000  F 
  F132     1.0000 0.51573  0.27723  0.41022  Biso   1.000  F 
  O121     1.0000 0.50000  0.92810  0.36740  Biso   1.000  O 
  C353     1.0000 0.50000  0.88280  0.38280  Biso   1.000  C 
  O122     1.0000 0.50000  0.86740  0.42810  Biso   1.000  O 
  C354     1.0000 0.50000  0.84350  0.34350  Biso   1.000  C 
  C355     1.0000 0.50000  0.85530  0.29420  Biso   1.000  C 
  C356     1.0000 0.50000  0.79420  0.35530  Biso   1.000  C 
  C357     1.0000 0.50000  0.82050  0.25800  Biso   1.000  C 
  H133     1.0000 0.50000  0.88860  0.28510  Biso   1.000  H 
  C358     1.0000 0.50000  0.75800  0.32050  Biso   1.000  C 
  C359     1.0000 0.48547  0.77429  0.41120  Biso   1.000  C 
  C360     1.0000 0.50000  0.76930  0.26930  Biso   1.000  C 
  C361     1.0000 0.50000  0.73070  0.23070  Biso   1.000  C 
  H134     1.0000 0.50000  0.83050  0.22490  Biso   1.000  H 
  C362     1.0000 0.50000  0.74200  0.17950  Biso   1.000  C 
  H135     1.0000 0.50000  0.72490  0.33050  Biso   1.000  H 
  C363     1.0000 0.50000  0.67950  0.24200  Biso   1.000  C 
  C364     1.0000 0.50000  0.70580  0.14470  Biso   1.000  C 
  H136     1.0000 0.50000  0.77510  0.16950  Biso   1.000  H 
  C365     1.0000 0.50000  0.64470  0.20580  Biso   1.000  C 
  H137     1.0000 0.50000  0.66950  0.27510  Biso   1.000  H 
  C366     1.0000 0.50000  0.65650  0.15650  Biso   1.000  C 
  C367     1.0000 0.50000  0.61720  0.11720  Biso   1.000  C 
  C368     1.0000 0.49999  0.72595  0.08718  Biso   1.000  C 
  H138     1.0000 0.50000  0.61140  0.21490  Biso   1.000  H 
  O123     1.0000 0.50000  0.63260  0.07190  Biso   1.000  O 
  O124     1.0000 0.50000  0.57190  0.13260  Biso   1.000  O 
  F133     1.0000 0.49999  0.77974  0.08528  Biso   1.000  F 
  F134     1.0000 0.45732  0.71118  0.06052  Biso   1.000  F 
  F135     1.0000 0.54266  0.71119  0.06051  Biso   1.000  F 
  F136     1.0000 0.43973  0.79238  0.42131  Biso   1.000  F 
  F137     1.0000 0.51945  0.78560  0.44801  Biso   1.000  F 
  F138     1.0000 0.48427  0.72277  0.41022  Biso   1.000  F 
  O125     1.0000 0.50000  0.92810  0.63260  Biso   1.000  O 
  C369     1.0000 0.50000  0.88280  0.61720  Biso   1.000  C 
  O126     1.0000 0.50000  0.86740  0.57190  Biso   1.000  O 
  C370     1.0000 0.50000  0.84350  0.65650  Biso   1.000  C 
  C371     1.0000 0.50000  0.85530  0.70580  Biso   1.000  C 
  C372     1.0000 0.50000  0.79420  0.64470  Biso   1.000  C 
  C373     1.0000 0.50000  0.82050  0.74200  Biso   1.000  C 
  H139     1.0000 0.50000  0.88860  0.71490  Biso   1.000  H 
  C374     1.0000 0.50000  0.75800  0.67950  Biso   1.000  C 
  C375     1.0000 0.51453  0.77429  0.58880  Biso   1.000  C 
  C376     1.0000 0.50000  0.76930  0.73070  Biso   1.000  C 
  C377     1.0000 0.50000  0.73070  0.76930  Biso   1.000  C 
  H140     1.0000 0.50000  0.83050  0.77510  Biso   1.000  H 
  C378     1.0000 0.50000  0.74200  0.82050  Biso   1.000  C 
  H141     1.0000 0.50000  0.72490  0.66950  Biso   1.000  H 
  C379     1.0000 0.50000  0.67950  0.75800  Biso   1.000  C 
  C380     1.0000 0.50000  0.70580  0.85530  Biso   1.000  C 
  H142     1.0000 0.50000  0.77510  0.83050  Biso   1.000  H 
  C381     1.0000 0.50000  0.64470  0.79420  Biso   1.000  C 
  H143     1.0000 0.50000  0.66950  0.72490  Biso   1.000  H 
  C382     1.0000 0.50000  0.65650  0.84350  Biso   1.000  C 
  C383     1.0000 0.50000  0.61720  0.88280  Biso   1.000  C 
  C384     1.0000 0.50001  0.72595  0.91282  Biso   1.000  C 
  H144     1.0000 0.50000  0.61140  0.78510  Biso   1.000  H 
  O127     1.0000 0.50000  0.63260  0.92810  Biso   1.000  O 
  O128     1.0000 0.50000  0.57190  0.86740  Biso   1.000  O 
  F139     1.0000 0.50001  0.77974  0.91472  Biso   1.000  F 
  F140     1.0000 0.54268  0.71118  0.93948  Biso   1.000  F 
  F141     1.0000 0.45734  0.71119  0.93949  Biso   1.000  F 
  F142     1.0000 0.56027  0.79238  0.57869  Biso   1.000  F 
  F143     1.0000 0.48055  0.78560  0.55199  Biso   1.000  F 
  F144     1.0000 0.51573  0.72277  0.58978  Biso   1.000  F 
