data_image0
_cell_length_a       20.7004
_cell_length_b       20.7004
_cell_length_c       20.7004
_cell_angle_alpha    90
_cell_angle_beta     90
_cell_angle_gamma    90

_symmetry_space_group_name_H-M    "P 1"
_symmetry_int_tables_number       1

loop_
  _symmetry_equiv_pos_as_xyz
  'x, y, z'

loop_
  _atom_site_label
  _atom_site_occupancy
  _atom_site_fract_x
  _atom_site_fract_y
  _atom_site_fract_z
  _atom_site_thermal_displace_type
  _atom_site_B_iso_or_equiv
  _atom_site_type_symbol
  Zr1      1.0000 0.11989  0.00000  0.00000  Biso   1.000  Zr
  Zr2      1.0000 0.11989  0.50000  0.50000  Biso   1.000  Zr
  Zr3      1.0000 0.61989  0.00000  0.50000  Biso   1.000  Zr
  Zr4      1.0000 0.61989  0.50000  0.00000  Biso   1.000  Zr
  Zr5      1.0000 0.88011  0.00000  0.00000  Biso   1.000  Zr
  Zr6      1.0000 0.88011  0.50000  0.50000  Biso   1.000  Zr
  Zr7      1.0000 0.38011  0.00000  0.50000  Biso   1.000  Zr
  Zr8      1.0000 0.38011  0.50000  0.00000  Biso   1.000  Zr
  Zr9      1.0000 0.00000  0.11989  0.00000  Biso   1.000  Zr
  Zr10     1.0000 0.00000  0.61989  0.50000  Biso   1.000  Zr
  Zr11     1.0000 0.50000  0.11989  0.50000  Biso   1.000  Zr
  Zr12     1.0000 0.50000  0.61989  0.00000  Biso   1.000  Zr
  Zr13     1.0000 0.00000  0.88011  0.00000  Biso   1.000  Zr
  Zr14     1.0000 0.00000  0.38011  0.50000  Biso   1.000  Zr
  Zr15     1.0000 0.50000  0.88011  0.50000  Biso   1.000  Zr
  Zr16     1.0000 0.50000  0.38011  0.00000  Biso   1.000  Zr
  Zr17     1.0000 0.00000  0.00000  0.11989  Biso   1.000  Zr
  Zr18     1.0000 0.00000  0.50000  0.61989  Biso   1.000  Zr
  Zr19     1.0000 0.50000  0.00000  0.61989  Biso   1.000  Zr
  Zr20     1.0000 0.50000  0.50000  0.11989  Biso   1.000  Zr
  Zr21     1.0000 0.00000  0.00000  0.88011  Biso   1.000  Zr
  Zr22     1.0000 0.00000  0.50000  0.38011  Biso   1.000  Zr
  Zr23     1.0000 0.50000  0.00000  0.38011  Biso   1.000  Zr
  Zr24     1.0000 0.50000  0.50000  0.88011  Biso   1.000  Zr
  O1       1.0000 0.05610  0.44390  0.44390  Biso   1.000  O 
  O2       1.0000 0.55610  0.94390  0.44390  Biso   1.000  O 
  O3       1.0000 0.55610  0.44390  0.94390  Biso   1.000  O 
  O4       1.0000 0.44390  0.05610  0.44390  Biso   1.000  O 
  O5       1.0000 0.44390  0.55610  0.94390  Biso   1.000  O 
  O6       1.0000 0.94390  0.94390  0.05610  Biso   1.000  O 
  O7       1.0000 0.94390  0.44390  0.55610  Biso   1.000  O 
  O8       1.0000 0.05610  0.05610  0.05610  Biso   1.000  O 
  O9       1.0000 0.55610  0.55610  0.05610  Biso   1.000  O 
  O10      1.0000 0.94390  0.05610  0.05610  Biso   1.000  O 
  O11      1.0000 0.94390  0.55610  0.55610  Biso   1.000  O 
  O12      1.0000 0.44390  0.05610  0.55610  Biso   1.000  O 
  O13      1.0000 0.44390  0.55610  0.05610  Biso   1.000  O 
  O14      1.0000 0.05610  0.94390  0.05610  Biso   1.000  O 
  O15      1.0000 0.05610  0.44390  0.55610  Biso   1.000  O 
  O16      1.0000 0.55610  0.94390  0.55610  Biso   1.000  O 
  O17      1.0000 0.55610  0.44390  0.05610  Biso   1.000  O 
  O18      1.0000 0.94390  0.94390  0.94390  Biso   1.000  O 
  O19      1.0000 0.94390  0.44390  0.44390  Biso   1.000  O 
  O20      1.0000 0.44390  0.94390  0.44390  Biso   1.000  O 
  O21      1.0000 0.44390  0.44390  0.94390  Biso   1.000  O 
  O22      1.0000 0.05610  0.05610  0.94390  Biso   1.000  O 
  O23      1.0000 0.05610  0.55610  0.44390  Biso   1.000  O 
  O24      1.0000 0.55610  0.05610  0.44390  Biso   1.000  O 
  C1       1.0000 0.15360  0.00000  0.84640  Biso   1.000  C 
  O25      1.0000 0.17046  0.00000  0.90471  Biso   1.000  O 
  O26      1.0000 0.09529  0.00000  0.82954  Biso   1.000  O 
  C2       1.0000 0.20500  0.00000  0.79500  Biso   1.000  C 
  C3       1.0000 0.18437  0.00000  0.73249  Biso   1.000  C 
  N1       1.0000 0.12773  0.95730  0.71419  Biso   1.000  N 
  H1       1.0000 0.22128  0.00000  0.63051  Biso   1.000  H 
  C4       1.0000 0.23249  0.00000  0.68442  Biso   1.000  C 
  C5       1.0000 0.29500  0.00000  0.70500  Biso   1.000  C 
  C6       1.0000 0.31558  0.00000  0.76751  Biso   1.000  C 
  C7       1.0000 0.26751  0.00000  0.81563  Biso   1.000  C 
  H2       1.0000 0.27872  0.00000  0.86954  Biso   1.000  H 
  N2       1.0000 0.37385  0.03815  0.78805  Biso   1.000  N 
  O27      1.0000 0.40470  0.00000  0.67046  Biso   1.000  O 
  C8       1.0000 0.34640  0.00000  0.65360  Biso   1.000  C 
  O28      1.0000 0.32954  0.00000  0.59529  Biso   1.000  O 
  H3       1.0000 0.08069  0.97477  0.72660  Biso   1.000  H 
  C9       1.0000 0.13804  0.88990  0.73652  Biso   1.000  C 
  H4       1.0000 0.10284  0.85945  0.71044  Biso   1.000  H 
  H5       1.0000 0.12808  0.88919  0.78936  Biso   1.000  H 
  C10      1.0000 0.20626  0.85749  0.72554  Biso   1.000  C 
  H6       1.0000 0.24567  0.88184  0.75402  Biso   1.000  H 
  C11      1.0000 0.22385  0.84319  0.65627  Biso   1.000  C 
  H7       1.0000 0.20254  0.80554  0.74444  Biso   1.000  H 
  H8       1.0000 0.27692  0.84081  0.65237  Biso   1.000  H 
  H9       1.0000 0.20788  0.87811  0.62220  Biso   1.000  H 
  H10      1.0000 0.20052  0.79799  0.63942  Biso   1.000  H 
  C12      1.0000 0.36880  0.10922  0.77900  Biso   1.000  C 
  H11      1.0000 0.41781  0.02040  0.77302  Biso   1.000  H 
  H12      1.0000 0.40099  0.13142  0.81415  Biso   1.000  H 
  C13      1.0000 0.30491  0.14306  0.79140  Biso   1.000  C 
  H13      1.0000 0.38436  0.12233  0.73001  Biso   1.000  H 
  H14      1.0000 0.27038  0.12028  0.75746  Biso   1.000  H 
  H15      1.0000 0.31018  0.19500  0.77671  Biso   1.000  H 
  C14      1.0000 0.27541  0.13836  0.85840  Biso   1.000  C 
  H16      1.0000 0.27743  0.18811  0.87907  Biso   1.000  H 
  H17      1.0000 0.30276  0.10819  0.89267  Biso   1.000  H 
  H18      1.0000 0.22621  0.12053  0.86166  Biso   1.000  H 
  C15      1.0000 0.15360  0.50000  0.34640  Biso   1.000  C 
  O29      1.0000 0.17046  0.50000  0.40471  Biso   1.000  O 
  O30      1.0000 0.09529  0.50000  0.32954  Biso   1.000  O 
  C16      1.0000 0.20500  0.50000  0.29500  Biso   1.000  C 
  C17      1.0000 0.18437  0.50000  0.23249  Biso   1.000  C 
  N3       1.0000 0.12416  0.45851  0.21368  Biso   1.000  N 
  H19      1.0000 0.22128  0.50000  0.13051  Biso   1.000  H 
  C18      1.0000 0.23249  0.50000  0.18442  Biso   1.000  C 
  C19      1.0000 0.29500  0.50000  0.20500  Biso   1.000  C 
  C20      1.0000 0.31558  0.50000  0.26751  Biso   1.000  C 
  C21      1.0000 0.26751  0.50000  0.31563  Biso   1.000  C 
  H20      1.0000 0.27872  0.50000  0.36954  Biso   1.000  H 
  N4       1.0000 0.37752  0.53013  0.28594  Biso   1.000  N 
  O31      1.0000 0.40470  0.50000  0.17046  Biso   1.000  O 
  C22      1.0000 0.34640  0.50000  0.15360  Biso   1.000  C 
  O32      1.0000 0.32954  0.50000  0.09529  Biso   1.000  O 
  H21      1.0000 0.07941  0.47433  0.23055  Biso   1.000  H 
  C23      1.0000 0.13419  0.38936  0.23196  Biso   1.000  C 
  H22      1.0000 0.09734  0.36380  0.21048  Biso   1.000  H 
  H23      1.0000 0.12850  0.38558  0.28552  Biso   1.000  H 
  C24      1.0000 0.19851  0.35885  0.21812  Biso   1.000  C 
  H24      1.0000 0.23730  0.38501  0.24106  Biso   1.000  H 
  C25      1.0000 0.21929  0.34346  0.15091  Biso   1.000  C 
  H25      1.0000 0.19519  0.31167  0.24306  Biso   1.000  H 
  H26      1.0000 0.17772  0.34844  0.11759  Biso   1.000  H 
  H27      1.0000 0.23553  0.29263  0.14795  Biso   1.000  H 
  H28      1.0000 0.25820  0.37685  0.13752  Biso   1.000  H 
  C26      1.0000 0.37714  0.59937  0.27141  Biso   1.000  C 
  H29      1.0000 0.41530  0.50365  0.27026  Biso   1.000  H 
  H30      1.0000 0.40553  0.62219  0.30887  Biso   1.000  H 
  C27      1.0000 0.31069  0.63721  0.27345  Biso   1.000  C 
  H31      1.0000 0.39841  0.60965  0.22394  Biso   1.000  H 
  H32      1.0000 0.26848  0.61022  0.25178  Biso   1.000  H 
  H33      1.0000 0.31594  0.68327  0.24742  Biso   1.000  H 
  C28      1.0000 0.28895  0.65602  0.34124  Biso   1.000  C 
  H34      1.0000 0.30527  0.61861  0.37487  Biso   1.000  H 
  H35      1.0000 0.23564  0.65875  0.34170  Biso   1.000  H 
  H36      1.0000 0.31057  0.70460  0.35626  Biso   1.000  H 
  C29      1.0000 0.65360  0.00000  0.34640  Biso   1.000  C 
  O33      1.0000 0.67046  0.00000  0.40471  Biso   1.000  O 
  O34      1.0000 0.59529  0.00000  0.32954  Biso   1.000  O 
  C30      1.0000 0.70500  0.00000  0.29500  Biso   1.000  C 
  C31      1.0000 0.68437  0.00000  0.23249  Biso   1.000  C 
  N5       1.0000 0.62895  0.95485  0.21290  Biso   1.000  N 
  H37      1.0000 0.72128  0.00000  0.13051  Biso   1.000  H 
  C32      1.0000 0.73248  0.00000  0.18442  Biso   1.000  C 
  C33      1.0000 0.79499  0.00000  0.20500  Biso   1.000  C 
  C34      1.0000 0.81558  0.00000  0.26751  Biso   1.000  C 
  C35      1.0000 0.76751  0.00000  0.31563  Biso   1.000  C 
  H38      1.0000 0.77872  0.00000  0.36954  Biso   1.000  H 
  N6       1.0000 0.87738  0.03155  0.28741  Biso   1.000  N 
  O35      1.0000 0.90470  0.00000  0.17046  Biso   1.000  O 
  C36      1.0000 0.84639  0.00000  0.15360  Biso   1.000  C 
  O36      1.0000 0.82953  0.00000  0.09529  Biso   1.000  O 
  H39      1.0000 0.58469  0.96530  0.22912  Biso   1.000  H 
  C37      1.0000 0.63904  0.88514  0.22886  Biso   1.000  C 
  H40      1.0000 0.60633  0.86201  0.19412  Biso   1.000  H 
  H41      1.0000 0.62001  0.87040  0.27701  Biso   1.000  H 
  C38      1.0000 0.70759  0.85545  0.22089  Biso   1.000  C 
  H42      1.0000 0.74859  0.88435  0.24345  Biso   1.000  H 
  C39      1.0000 0.72255  0.83856  0.15070  Biso   1.000  C 
  H43      1.0000 0.70469  0.80900  0.24867  Biso   1.000  H 
  H44      1.0000 0.70620  0.87752  0.11835  Biso   1.000  H 
  H45      1.0000 0.69795  0.79336  0.13805  Biso   1.000  H 
  H46      1.0000 0.77481  0.83157  0.14706  Biso   1.000  H 
  C40      1.0000 0.87778  0.10151  0.27238  Biso   1.000  C 
  H47      1.0000 0.91891  0.00272  0.27619  Biso   1.000  H 
  H48      1.0000 0.91023  0.12131  0.30899  Biso   1.000  H 
  C41      1.0000 0.81283  0.13918  0.28011  Biso   1.000  C 
  H49      1.0000 0.89612  0.11025  0.22239  Biso   1.000  H 
  H50      1.0000 0.77263  0.11997  0.24811  Biso   1.000  H 
  H51      1.0000 0.82498  0.19037  0.26421  Biso   1.000  H 
  C42      1.0000 0.79563  0.15270  0.35031  Biso   1.000  C 
  H52      1.0000 0.75893  0.11830  0.37106  Biso   1.000  H 
  H53      1.0000 0.77597  0.20265  0.35400  Biso   1.000  H 
  H54      1.0000 0.83979  0.15432  0.38181  Biso   1.000  H 
  C43      1.0000 0.65360  0.50000  0.84640  Biso   1.000  C 
  O37      1.0000 0.67046  0.50000  0.90471  Biso   1.000  O 
  O38      1.0000 0.59529  0.50000  0.82954  Biso   1.000  O 
  C44      1.0000 0.70500  0.50000  0.79500  Biso   1.000  C 
  C45      1.0000 0.68437  0.50000  0.73249  Biso   1.000  C 
  N7       1.0000 0.62520  0.46480  0.71274  Biso   1.000  N 
  H55      1.0000 0.72128  0.50000  0.63051  Biso   1.000  H 
  C46      1.0000 0.73248  0.50000  0.68442  Biso   1.000  C 
  C47      1.0000 0.79499  0.50000  0.70500  Biso   1.000  C 
  C48      1.0000 0.81558  0.50000  0.76751  Biso   1.000  C 
  C49      1.0000 0.76751  0.50000  0.81563  Biso   1.000  C 
  H56      1.0000 0.77872  0.50000  0.86954  Biso   1.000  H 
  N8       1.0000 0.87458  0.53671  0.78477  Biso   1.000  N 
  O39      1.0000 0.90470  0.50000  0.67046  Biso   1.000  O 
  C50      1.0000 0.84639  0.50000  0.65360  Biso   1.000  C 
  O40      1.0000 0.82953  0.50000  0.59529  Biso   1.000  O 
  H57      1.0000 0.58592  0.48498  0.73115  Biso   1.000  H 
  C51      1.0000 0.62728  0.39450  0.72901  Biso   1.000  C 
  H58      1.0000 0.59561  0.36983  0.69397  Biso   1.000  H 
  H59      1.0000 0.61284  0.38239  0.77859  Biso   1.000  H 
  C52      1.0000 0.69260  0.35910  0.71802  Biso   1.000  C 
  H60      1.0000 0.72820  0.38372  0.75172  Biso   1.000  H 
  C53      1.0000 0.72055  0.34989  0.64977  Biso   1.000  C 
  H61      1.0000 0.68700  0.31006  0.73488  Biso   1.000  H 
  H62      1.0000 0.77555  0.33734  0.65196  Biso   1.000  H 
  H63      1.0000 0.71416  0.39304  0.62005  Biso   1.000  H 
  H64      1.0000 0.69540  0.30840  0.62576  Biso   1.000  H 
  C54      1.0000 0.87216  0.60634  0.78091  Biso   1.000  C 
  H65      1.0000 0.91806  0.51292  0.79283  Biso   1.000  H 
  H66      1.0000 0.89903  0.62464  0.82053  Biso   1.000  H 
  C55      1.0000 0.80531  0.64174  0.77741  Biso   1.000  C 
  H67      1.0000 0.89624  0.62090  0.73586  Biso   1.000  H 
  H68      1.0000 0.76684  0.62063  0.74709  Biso   1.000  H 
  H69      1.0000 0.81566  0.68939  0.75580  Biso   1.000  H 
  C56      1.0000 0.77870  0.65741  0.84387  Biso   1.000  C 
  H70      1.0000 0.74519  0.62126  0.86679  Biso   1.000  H 
  H71      1.0000 0.75301  0.70228  0.83523  Biso   1.000  H 
  H72      1.0000 0.81865  0.66908  0.87680  Biso   1.000  H 
  C57      1.0000 0.84640  0.00000  0.84640  Biso   1.000  C 
  O41      1.0000 0.82954  0.00000  0.90471  Biso   1.000  O 
  O42      1.0000 0.90471  0.00000  0.82954  Biso   1.000  O 
  C58      1.0000 0.79500  0.00000  0.79500  Biso   1.000  C 
  C59      1.0000 0.81563  0.00000  0.73249  Biso   1.000  C 
  N9       1.0000 0.87784  0.96389  0.71837  Biso   1.000  N 
  H73      1.0000 0.77872  0.00000  0.63051  Biso   1.000  H 
  C60      1.0000 0.76752  0.00000  0.68442  Biso   1.000  C 
  C61      1.0000 0.70501  0.00000  0.70500  Biso   1.000  C 
  C62      1.0000 0.68442  0.00000  0.76751  Biso   1.000  C 
  C63      1.0000 0.73249  0.00000  0.81563  Biso   1.000  C 
  H74      1.0000 0.72128  0.00000  0.86954  Biso   1.000  H 
  N10      1.0000 0.61763  0.02616  0.78082  Biso   1.000  N 
  O43      1.0000 0.59530  0.00000  0.67046  Biso   1.000  O 
  C64      1.0000 0.65361  0.00000  0.65360  Biso   1.000  C 
  O44      1.0000 0.67047  0.00000  0.59529  Biso   1.000  O 
  H75      1.0000 0.87002  0.91503  0.72805  Biso   1.000  H 
  C65      1.0000 0.91161  0.97765  0.65925  Biso   1.000  C 
  H76      1.0000 0.88025  0.98540  0.62053  Biso   1.000  H 
  H77      1.0000 0.93784  0.93335  0.64801  Biso   1.000  H 
  C66      1.0000 0.96107  0.03097  0.67012  Biso   1.000  C 
  H78      1.0000 0.93445  0.07617  0.66176  Biso   1.000  H 
  C67      1.0000 0.01433  0.02548  0.62109  Biso   1.000  C 
  H79      1.0000 0.98143  0.03033  0.71962  Biso   1.000  H 
  H80      1.0000 0.99438  0.02028  0.57433  Biso   1.000  H 
  H81      1.0000 0.03934  0.97916  0.63159  Biso   1.000  H 
  H82      1.0000 0.04872  0.06827  0.62289  Biso   1.000  H 
  C68      1.0000 0.59350  0.01242  0.84263  Biso   1.000  C 
  H83      1.0000 0.61443  0.07572  0.77047  Biso   1.000  H 
  H84      1.0000 0.61662  0.96990  0.86287  Biso   1.000  H 
  C69      1.0000 0.52247  0.99809  0.82807  Biso   1.000  C 
  H85      1.0000 0.60292  0.05606  0.87012  Biso   1.000  H 
  H86      1.0000 0.51589  0.97762  0.77838  Biso   1.000  H 
  H87      1.0000 0.49522  0.04455  0.83336  Biso   1.000  H 
  C70      1.0000 0.50150  0.94986  0.87618  Biso   1.000  C 
  H88      1.0000 0.53032  0.90801  0.87638  Biso   1.000  H 
  H89      1.0000 0.45119  0.93847  0.86585  Biso   1.000  H 
  H90      1.0000 0.50842  0.97496  0.92206  Biso   1.000  H 
  C71      1.0000 0.84640  0.50000  0.34640  Biso   1.000  C 
  O45      1.0000 0.82954  0.50000  0.40471  Biso   1.000  O 
  O46      1.0000 0.90471  0.50000  0.32954  Biso   1.000  O 
  C72      1.0000 0.79500  0.50000  0.29500  Biso   1.000  C 
  C73      1.0000 0.81563  0.50000  0.23249  Biso   1.000  C 
  N11      1.0000 0.87714  0.45861  0.22049  Biso   1.000  N 
  H91      1.0000 0.77872  0.50000  0.13051  Biso   1.000  H 
  C74      1.0000 0.76752  0.50000  0.18442  Biso   1.000  C 
  C75      1.0000 0.70501  0.50000  0.20500  Biso   1.000  C 
  C76      1.0000 0.68442  0.50000  0.26751  Biso   1.000  C 
  C77      1.0000 0.73249  0.50000  0.31563  Biso   1.000  C 
  H92      1.0000 0.72128  0.50000  0.36954  Biso   1.000  H 
  N12      1.0000 0.62113  0.53311  0.28086  Biso   1.000  N 
  O47      1.0000 0.59530  0.50000  0.17046  Biso   1.000  O 
  C78      1.0000 0.65361  0.50000  0.15360  Biso   1.000  C 
  O48      1.0000 0.67047  0.50000  0.09529  Biso   1.000  O 
  H93      1.0000 0.86032  0.41115  0.21717  Biso   1.000  H 
  C79      1.0000 0.91409  0.47160  0.16159  Biso   1.000  C 
  H94      1.0000 0.88593  0.47377  0.11749  Biso   1.000  H 
  H95      1.0000 0.94778  0.43040  0.15749  Biso   1.000  H 
  C80      1.0000 0.95939  0.52655  0.16947  Biso   1.000  C 
  H96      1.0000 0.93119  0.57103  0.16254  Biso   1.000  H 
  C81      1.0000 0.01504  0.52563  0.12387  Biso   1.000  C 
  H97      1.0000 0.97838  0.52608  0.21892  Biso   1.000  H 
  H98      1.0000 0.99646  0.51948  0.07395  Biso   1.000  H 
  H99      1.0000 0.04596  0.48271  0.13605  Biso   1.000  H 
  H100     1.0000 0.04412  0.57096  0.13010  Biso   1.000  H 
  C82      1.0000 0.58753  0.50368  0.33329  Biso   1.000  C 
  H101     1.0000 0.62755  0.58279  0.28614  Biso   1.000  H 
  H102     1.0000 0.60741  0.45533  0.34113  Biso   1.000  H 
  C83      1.0000 0.51810  0.49193  0.31695  Biso   1.000  C 
  H103     1.0000 0.59147  0.53341  0.37772  Biso   1.000  H 
  H104     1.0000 0.51650  0.46780  0.26930  Biso   1.000  H 
  H105     1.0000 0.49451  0.53941  0.31587  Biso   1.000  H 
  C84      1.0000 0.48715  0.45371  0.37075  Biso   1.000  C 
  H106     1.0000 0.52203  0.41244  0.38315  Biso   1.000  H 
  H107     1.0000 0.43906  0.43553  0.35267  Biso   1.000  H 
  H108     1.0000 0.48541  0.48283  0.41207  Biso   1.000  H 
  C85      1.0000 0.34640  0.00000  0.34640  Biso   1.000  C 
  O49      1.0000 0.32954  0.00000  0.40471  Biso   1.000  O 
  O50      1.0000 0.40471  0.00000  0.32954  Biso   1.000  O 
  C86      1.0000 0.29500  0.00000  0.29500  Biso   1.000  C 
  C87      1.0000 0.31563  0.00000  0.23249  Biso   1.000  C 
  N13      1.0000 0.38163  0.97351  0.21556  Biso   1.000  N 
  H109     1.0000 0.27872  0.00000  0.13051  Biso   1.000  H 
  C88      1.0000 0.26751  0.00000  0.18442  Biso   1.000  C 
  C89      1.0000 0.20500  0.00000  0.20500  Biso   1.000  C 
  C90      1.0000 0.18442  0.00000  0.26751  Biso   1.000  C 
  C91      1.0000 0.23249  0.00000  0.31563  Biso   1.000  C 
  H110     1.0000 0.22128  0.00000  0.36954  Biso   1.000  H 
  N14      1.0000 0.12178  0.03791  0.28158  Biso   1.000  N 
  O51      1.0000 0.09530  0.00000  0.17046  Biso   1.000  O 
  C92      1.0000 0.15360  0.00000  0.15360  Biso   1.000  C 
  O52      1.0000 0.17046  0.00000  0.09529  Biso   1.000  O 
  H111     1.0000 0.38289  0.92334  0.20717  Biso   1.000  H 
  C93      1.0000 0.41285  0.00459  0.16225  Biso   1.000  C 
  H112     1.0000 0.39515  0.05108  0.15339  Biso   1.000  H 
  H113     1.0000 0.40548  0.97467  0.11845  Biso   1.000  H 
  C94      1.0000 0.48221  0.00266  0.17745  Biso   1.000  C 
  H114     1.0000 0.49110  0.01675  0.22848  Biso   1.000  H 
  C95      1.0000 0.52395  0.04154  0.13579  Biso   1.000  C 
  H115     1.0000 0.50001  0.95360  0.16841  Biso   1.000  H 
  H116     1.0000 0.52282  0.01512  0.09054  Biso   1.000  H 
  H117     1.0000 0.57426  0.05021  0.15277  Biso   1.000  H 
  H118     1.0000 0.49940  0.08787  0.13265  Biso   1.000  H 
  C96      1.0000 0.09387  0.02785  0.34303  Biso   1.000  C 
  H119     1.0000 0.13369  0.08766  0.27685  Biso   1.000  H 
  H120     1.0000 0.12663  0.00624  0.37577  Biso   1.000  H 
  C97      1.0000 0.04583  0.97302  0.33447  Biso   1.000  C 
  H121     1.0000 0.07811  0.07565  0.36211  Biso   1.000  H 
  H122     1.0000 0.06332  0.92425  0.34877  Biso   1.000  H 
  H123     1.0000 0.02726  0.97168  0.28330  Biso   1.000  H 
  C98      1.0000 0.99501  0.99037  0.37829  Biso   1.000  C 
  H124     1.0000 0.95954  0.95067  0.37470  Biso   1.000  H 
  H125     1.0000 0.97349  0.03678  0.36675  Biso   1.000  H 
  H126     1.0000 0.01509  0.98969  0.42527  Biso   1.000  H 
  C99      1.0000 0.34640  0.50000  0.84640  Biso   1.000  C 
  O53      1.0000 0.32954  0.50000  0.90471  Biso   1.000  O 
  O54      1.0000 0.40471  0.50000  0.82954  Biso   1.000  O 
  C100     1.0000 0.29500  0.50000  0.79500  Biso   1.000  C 
  C101     1.0000 0.31563  0.50000  0.73249  Biso   1.000  C 
  N15      1.0000 0.38128  0.46902  0.71890  Biso   1.000  N 
  H127     1.0000 0.27872  0.50000  0.63051  Biso   1.000  H 
  C102     1.0000 0.26751  0.50000  0.68442  Biso   1.000  C 
  C103     1.0000 0.20500  0.50000  0.70500  Biso   1.000  C 
  C104     1.0000 0.18442  0.50000  0.76751  Biso   1.000  C 
  C105     1.0000 0.23249  0.50000  0.81563  Biso   1.000  C 
  H128     1.0000 0.22128  0.50000  0.86954  Biso   1.000  H 
  N16      1.0000 0.12002  0.53676  0.78019  Biso   1.000  N 
  O55      1.0000 0.09530  0.50000  0.67046  Biso   1.000  O 
  C106     1.0000 0.15360  0.50000  0.65360  Biso   1.000  C 
  O56      1.0000 0.17046  0.50000  0.59529  Biso   1.000  O 
  H129     1.0000 0.37479  0.41835  0.71869  Biso   1.000  H 
  C107     1.0000 0.40324  0.49294  0.65489  Biso   1.000  C 
  H130     1.0000 0.37506  0.53021  0.63230  Biso   1.000  H 
  H131     1.0000 0.40602  0.45189  0.62059  Biso   1.000  H 
  C108     1.0000 0.46745  0.52585  0.66265  Biso   1.000  C 
  H132     1.0000 0.46432  0.57454  0.64357  Biso   1.000  H 
  C109     1.0000 0.52287  0.49051  0.63030  Biso   1.000  C 
  H133     1.0000 0.47793  0.52961  0.71674  Biso   1.000  H 
  H134     1.0000 0.51179  0.47931  0.57921  Biso   1.000  H 
  H135     1.0000 0.52622  0.44617  0.65889  Biso   1.000  H 
  H136     1.0000 0.56758  0.52113  0.63433  Biso   1.000  H 
  C110     1.0000 0.08524  0.52577  0.84241  Biso   1.000  C 
  H137     1.0000 0.13149  0.58582  0.78130  Biso   1.000  H 
  H138     1.0000 0.11953  0.52288  0.88177  Biso   1.000  H 
  C111     1.0000 0.04964  0.46450  0.83929  Biso   1.000  C 
  H139     1.0000 0.05531  0.56713  0.85474  Biso   1.000  H 
  H140     1.0000 0.08263  0.42934  0.81939  Biso   1.000  H 
  H141     1.0000 0.00939  0.47273  0.80543  Biso   1.000  H 
  C112     1.0000 0.02247  0.44092  0.90259  Biso   1.000  C 
  H142     1.0000 0.04558  0.39531  0.91852  Biso   1.000  H 
  H143     1.0000 0.96925  0.42760  0.89149  Biso   1.000  H 
  H144     1.0000 0.02597  0.47651  0.94169  Biso   1.000  H 
  C113     1.0000 0.84640  0.15360  0.00000  Biso   1.000  C 
  O57      1.0000 0.90471  0.17046  0.00000  Biso   1.000  O 
  O58      1.0000 0.82954  0.09529  0.00000  Biso   1.000  O 
  C114     1.0000 0.79500  0.20500  0.00000  Biso   1.000  C 
  C115     1.0000 0.73249  0.18437  0.00000  Biso   1.000  C 
  N17      1.0000 0.71431  0.12792  0.95668  Biso   1.000  N 
  H145     1.0000 0.63051  0.22128  0.00000  Biso   1.000  H 
  C116     1.0000 0.68442  0.23249  0.00000  Biso   1.000  C 
  C117     1.0000 0.70500  0.29500  0.00000  Biso   1.000  C 
  C118     1.0000 0.76751  0.31558  0.00000  Biso   1.000  C 
  C119     1.0000 0.81563  0.26751  0.00000  Biso   1.000  C 
  H146     1.0000 0.86954  0.27872  0.00000  Biso   1.000  H 
  N18      1.0000 0.78709  0.37431  0.04041  Biso   1.000  N 
  O59      1.0000 0.67046  0.40470  0.00000  Biso   1.000  O 
  C120     1.0000 0.65360  0.34640  0.00000  Biso   1.000  C 
  O60      1.0000 0.59529  0.32954  0.00000  Biso   1.000  O 
  H147     1.0000 0.73058  0.08180  0.96894  Biso   1.000  H 
  C121     1.0000 0.72805  0.14263  0.88739  Biso   1.000  C 
  H148     1.0000 0.69617  0.11356  0.85799  Biso   1.000  H 
  H149     1.0000 0.77851  0.12661  0.87547  Biso   1.000  H 
  C122     1.0000 0.71880  0.20946  0.85964  Biso   1.000  C 
  H150     1.0000 0.74965  0.24789  0.88475  Biso   1.000  H 
  C123     1.0000 0.64812  0.23061  0.85036  Biso   1.000  C 
  H151     1.0000 0.73444  0.20577  0.80964  Biso   1.000  H 
  H152     1.0000 0.62666  0.19188  0.82123  Biso   1.000  H 
  H153     1.0000 0.64613  0.27652  0.82401  Biso   1.000  H 
  H154     1.0000 0.62095  0.23487  0.89506  Biso   1.000  H 
  C124     1.0000 0.76559  0.36967  0.10743  Biso   1.000  C 
  H155     1.0000 0.78072  0.42009  0.01937  Biso   1.000  H 
  H156     1.0000 0.80257  0.39605  0.13210  Biso   1.000  H 
  C125     1.0000 0.75990  0.30350  0.14507  Biso   1.000  C 
  H157     1.0000 0.71937  0.39384  0.11245  Biso   1.000  H 
  H158     1.0000 0.72287  0.27278  0.12410  Biso   1.000  H 
  H159     1.0000 0.74560  0.31188  0.19684  Biso   1.000  H 
  C126     1.0000 0.82180  0.26391  0.15792  Biso   1.000  C 
  H160     1.0000 0.85249  0.25513  0.11509  Biso   1.000  H 
  H161     1.0000 0.80267  0.21549  0.17067  Biso   1.000  H 
  H162     1.0000 0.85408  0.28363  0.19774  Biso   1.000  H 
  C127     1.0000 0.84640  0.65360  0.50000  Biso   1.000  C 
  O61      1.0000 0.90471  0.67046  0.50000  Biso   1.000  O 
  O62      1.0000 0.82954  0.59529  0.50000  Biso   1.000  O 
  C128     1.0000 0.79500  0.70500  0.50000  Biso   1.000  C 
  C129     1.0000 0.73249  0.68437  0.50000  Biso   1.000  C 
  N19      1.0000 0.71359  0.62682  0.45964  Biso   1.000  N 
  H163     1.0000 0.63051  0.72128  0.50000  Biso   1.000  H 
  C130     1.0000 0.68442  0.73248  0.50000  Biso   1.000  C 
  C131     1.0000 0.70500  0.79499  0.50000  Biso   1.000  C 
  C132     1.0000 0.76751  0.81558  0.50000  Biso   1.000  C 
  C133     1.0000 0.81563  0.76751  0.50000  Biso   1.000  C 
  H164     1.0000 0.86954  0.77872  0.50000  Biso   1.000  H 
  N20      1.0000 0.78441  0.87492  0.54087  Biso   1.000  N 
  O63      1.0000 0.67046  0.90470  0.50000  Biso   1.000  O 
  C134     1.0000 0.65360  0.84639  0.50000  Biso   1.000  C 
  O64      1.0000 0.59529  0.82953  0.50000  Biso   1.000  O 
  H165     1.0000 0.72501  0.58342  0.47943  Biso   1.000  H 
  C135     1.0000 0.73473  0.63432  0.39137  Biso   1.000  C 
  H166     1.0000 0.70174  0.60342  0.36675  Biso   1.000  H 
  H167     1.0000 0.78234  0.61008  0.38613  Biso   1.000  H 
  C136     1.0000 0.72840  0.70542  0.35745  Biso   1.000  C 
  H168     1.0000 0.75264  0.74170  0.38585  Biso   1.000  H 
  C137     1.0000 0.66093  0.73219  0.34666  Biso   1.000  C 
  H169     1.0000 0.75385  0.70536  0.31091  Biso   1.000  H 
  H170     1.0000 0.62303  0.71472  0.38244  Biso   1.000  H 
  H171     1.0000 0.64316  0.72066  0.29713  Biso   1.000  H 
  H172     1.0000 0.66227  0.78655  0.35321  Biso   1.000  H 
  C138     1.0000 0.76510  0.86594  0.60898  Biso   1.000  C 
  H173     1.0000 0.77293  0.92029  0.52014  Biso   1.000  H 
  H174     1.0000 0.79794  0.89590  0.63595  Biso   1.000  H 
  C139     1.0000 0.76880  0.79779  0.63775  Biso   1.000  C 
  H175     1.0000 0.71510  0.88574  0.61444  Biso   1.000  H 
  H176     1.0000 0.73476  0.76207  0.61615  Biso   1.000  H 
  H177     1.0000 0.75333  0.80431  0.68850  Biso   1.000  H 
  C140     1.0000 0.83754  0.77329  0.65027  Biso   1.000  C 
  H178     1.0000 0.86719  0.78991  0.60964  Biso   1.000  H 
  H179     1.0000 0.83679  0.71880  0.65006  Biso   1.000  H 
  H180     1.0000 0.85964  0.78847  0.69679  Biso   1.000  H 
  C141     1.0000 0.34640  0.15360  0.50000  Biso   1.000  C 
  O65      1.0000 0.40471  0.17046  0.50000  Biso   1.000  O 
  O66      1.0000 0.32954  0.09529  0.50000  Biso   1.000  O 
  C142     1.0000 0.29500  0.20500  0.50000  Biso   1.000  C 
  C143     1.0000 0.23249  0.18437  0.50000  Biso   1.000  C 
  N21      1.0000 0.21536  0.12321  0.46516  Biso   1.000  N 
  H181     1.0000 0.13051  0.22128  0.50000  Biso   1.000  H 
  C144     1.0000 0.18442  0.23249  0.50000  Biso   1.000  C 
  C145     1.0000 0.20500  0.29500  0.50000  Biso   1.000  C 
  C146     1.0000 0.26751  0.31558  0.50000  Biso   1.000  C 
  C147     1.0000 0.31563  0.26751  0.50000  Biso   1.000  C 
  H182     1.0000 0.36954  0.27872  0.50000  Biso   1.000  H 
  N22      1.0000 0.28237  0.37616  0.53726  Biso   1.000  N 
  O67      1.0000 0.17046  0.40470  0.50000  Biso   1.000  O 
  C148     1.0000 0.15360  0.34640  0.50000  Biso   1.000  C 
  O68      1.0000 0.09529  0.32954  0.50000  Biso   1.000  O 
  H183     1.0000 0.22644  0.08285  0.48937  Biso   1.000  H 
  C149     1.0000 0.23340  0.12909  0.39721  Biso   1.000  C 
  H184     1.0000 0.20093  0.09914  0.37137  Biso   1.000  H 
  H185     1.0000 0.28272  0.10863  0.39310  Biso   1.000  H 
  C150     1.0000 0.23067  0.19825  0.36340  Biso   1.000  C 
  H186     1.0000 0.25295  0.23717  0.39460  Biso   1.000  H 
  C151     1.0000 0.16476  0.22404  0.34261  Biso   1.000  C 
  H187     1.0000 0.26212  0.19621  0.32183  Biso   1.000  H 
  H188     1.0000 0.12955  0.18691  0.35137  Biso   1.000  H 
  H189     1.0000 0.16625  0.22924  0.28896  Biso   1.000  H 
  H190     1.0000 0.14888  0.27155  0.36697  Biso   1.000  H 
  C152     1.0000 0.27541  0.36486  0.60861  Biso   1.000  C 
  H191     1.0000 0.33023  0.38738  0.53002  Biso   1.000  H 
  H192     1.0000 0.30667  0.39620  0.63531  Biso   1.000  H 
  C153     1.0000 0.29009  0.29527  0.63773  Biso   1.000  C 
  H193     1.0000 0.22447  0.37637  0.62105  Biso   1.000  H 
  H194     1.0000 0.26366  0.25524  0.61393  Biso   1.000  H 
  H195     1.0000 0.27132  0.29767  0.68692  Biso   1.000  H 
  C154     1.0000 0.36189  0.28132  0.65019  Biso   1.000  C 
  H196     1.0000 0.37007  0.22937  0.65977  Biso   1.000  H 
  H197     1.0000 0.37739  0.30955  0.69129  Biso   1.000  H 
  H198     1.0000 0.39017  0.29642  0.60751  Biso   1.000  H 
  C155     1.0000 0.34640  0.65360  0.00000  Biso   1.000  C 
  O69      1.0000 0.40471  0.67046  0.00000  Biso   1.000  O 
  O70      1.0000 0.32954  0.59529  0.00000  Biso   1.000  O 
  C156     1.0000 0.29500  0.70500  0.00000  Biso   1.000  C 
  C157     1.0000 0.23249  0.68437  0.00000  Biso   1.000  C 
  N23      1.0000 0.21352  0.62401  0.96674  Biso   1.000  N 
  H199     1.0000 0.13051  0.72128  0.00000  Biso   1.000  H 
  C158     1.0000 0.18442  0.73248  0.00000  Biso   1.000  C 
  C159     1.0000 0.20500  0.79499  0.00000  Biso   1.000  C 
  C160     1.0000 0.26751  0.81558  0.00000  Biso   1.000  C 
  C161     1.0000 0.31563  0.76751  0.00000  Biso   1.000  C 
  H200     1.0000 0.36954  0.77872  0.00000  Biso   1.000  H 
  N24      1.0000 0.28780  0.87630  0.03595  Biso   1.000  N 
  O71      1.0000 0.17046  0.90470  0.00000  Biso   1.000  O 
  C162     1.0000 0.15360  0.84639  0.00000  Biso   1.000  C 
  O72      1.0000 0.09529  0.82953  0.00000  Biso   1.000  O 
  H201     1.0000 0.22594  0.58053  0.98766  Biso   1.000  H 
  C163     1.0000 0.22708  0.62660  0.89588  Biso   1.000  C 
  H202     1.0000 0.19236  0.59591  0.87160  Biso   1.000  H 
  H203     1.0000 0.27626  0.60951  0.88546  Biso   1.000  H 
  C164     1.0000 0.22447  0.69199  0.85919  Biso   1.000  C 
  H204     1.0000 0.24251  0.73153  0.88519  Biso   1.000  H 
  C165     1.0000 0.15907  0.71308  0.83164  Biso   1.000  C 
  H205     1.0000 0.25630  0.68782  0.81717  Biso   1.000  H 
  H206     1.0000 0.12356  0.67535  0.84044  Biso   1.000  H 
  H207     1.0000 0.16074  0.71965  0.77748  Biso   1.000  H 
  H208     1.0000 0.14137  0.75713  0.85700  Biso   1.000  H 
  C166     1.0000 0.27391  0.86726  0.10760  Biso   1.000  C 
  H209     1.0000 0.26838  0.91776  0.01795  Biso   1.000  H 
  H210     1.0000 0.30823  0.89922  0.13346  Biso   1.000  H 
  C167     1.0000 0.28010  0.79998  0.13841  Biso   1.000  C 
  H211     1.0000 0.22331  0.87978  0.11991  Biso   1.000  H 
  H212     1.0000 0.25146  0.76255  0.11373  Biso   1.000  H 
  H213     1.0000 0.26052  0.80628  0.18608  Biso   1.000  H 
  C168     1.0000 0.34778  0.77519  0.14881  Biso   1.000  C 
  H214     1.0000 0.38018  0.78842  0.10944  Biso   1.000  H 
  H215     1.0000 0.34801  0.72119  0.14979  Biso   1.000  H 
  H216     1.0000 0.36691  0.79541  0.19551  Biso   1.000  H 
  C169     1.0000 0.84640  0.84640  0.00000  Biso   1.000  C 
  O73      1.0000 0.90471  0.82954  0.00000  Biso   1.000  O 
  O74      1.0000 0.82954  0.90471  0.00000  Biso   1.000  O 
  C170     1.0000 0.79500  0.79500  0.00000  Biso   1.000  C 
  C171     1.0000 0.73249  0.81563  0.00000  Biso   1.000  C 
  N25      1.0000 0.71608  0.88320  0.97627  Biso   1.000  N 
  H217     1.0000 0.63051  0.77872  0.00000  Biso   1.000  H 
  C172     1.0000 0.68442  0.76752  0.00000  Biso   1.000  C 
  C173     1.0000 0.70500  0.70501  0.00000  Biso   1.000  C 
  C174     1.0000 0.76751  0.68442  0.00000  Biso   1.000  C 
  C175     1.0000 0.81563  0.73249  0.00000  Biso   1.000  C 
  H218     1.0000 0.86954  0.72128  0.00000  Biso   1.000  H 
  N26      1.0000 0.78214  0.62436  0.04125  Biso   1.000  N 
  O75      1.0000 0.67046  0.59530  0.00000  Biso   1.000  O 
  C176     1.0000 0.65360  0.65361  0.00000  Biso   1.000  C 
  O76      1.0000 0.59529  0.67047  0.00000  Biso   1.000  O 
  H219     1.0000 0.72045  0.89038  0.92804  Biso   1.000  H 
  C177     1.0000 0.65573  0.90819  0.99619  Biso   1.000  C 
  H220     1.0000 0.63151  0.87502  0.02892  Biso   1.000  H 
  H221     1.0000 0.62705  0.91250  0.95171  Biso   1.000  H 
  C178     1.0000 0.66714  0.97132  0.02743  Biso   1.000  C 
  H222     1.0000 0.64926  0.96352  0.07705  Biso   1.000  H 
  C179     1.0000 0.61880  0.02023  0.00257  Biso   1.000  C 
  H223     1.0000 0.71690  0.99288  0.02501  Biso   1.000  H 
  H224     1.0000 0.57328  0.99522  0.99779  Biso   1.000  H 
  H225     1.0000 0.63748  0.04008  0.95959  Biso   1.000  H 
  H226     1.0000 0.61151  0.06079  0.03821  Biso   1.000  H 
  C180     1.0000 0.84412  0.59258  0.03057  Biso   1.000  C 
  H227     1.0000 0.77362  0.62932  0.09029  Biso   1.000  H 
  H228     1.0000 0.88256  0.62549  0.02842  Biso   1.000  H 
  C181     1.0000 0.83651  0.55387  0.97084  Biso   1.000  C 
  H229     1.0000 0.85081  0.56165  0.07246  Biso   1.000  H 
  H230     1.0000 0.83324  0.58650  0.92914  Biso   1.000  H 
  H231     1.0000 0.79180  0.52853  0.97905  Biso   1.000  H 
  C182     1.0000 0.89190  0.51149  0.95628  Biso   1.000  C 
  H232     1.0000 0.91770  0.52738  0.91373  Biso   1.000  H 
  H233     1.0000 0.87289  0.46289  0.94758  Biso   1.000  H 
  H234     1.0000 0.92439  0.51403  0.99954  Biso   1.000  H 
  C183     1.0000 0.84640  0.34640  0.50000  Biso   1.000  C 
  O77      1.0000 0.90471  0.32954  0.50000  Biso   1.000  O 
  O78      1.0000 0.82954  0.40471  0.50000  Biso   1.000  O 
  C184     1.0000 0.79500  0.29500  0.50000  Biso   1.000  C 
  C185     1.0000 0.73249  0.31563  0.50000  Biso   1.000  C 
  N27      1.0000 0.71532  0.37916  0.47027  Biso   1.000  N 
  H235     1.0000 0.63051  0.27872  0.50000  Biso   1.000  H 
  C186     1.0000 0.68442  0.26751  0.50000  Biso   1.000  C 
  C187     1.0000 0.70500  0.20500  0.50000  Biso   1.000  C 
  C188     1.0000 0.76751  0.18442  0.50000  Biso   1.000  C 
  C189     1.0000 0.81563  0.23249  0.50000  Biso   1.000  C 
  H236     1.0000 0.86954  0.22128  0.50000  Biso   1.000  H 
  N28      1.0000 0.78315  0.12253  0.53597  Biso   1.000  N 
  O79      1.0000 0.67046  0.09530  0.50000  Biso   1.000  O 
  C190     1.0000 0.65360  0.15360  0.50000  Biso   1.000  C 
  O80      1.0000 0.59529  0.17046  0.50000  Biso   1.000  O 
  H237     1.0000 0.72674  0.37829  0.42096  Biso   1.000  H 
  C191     1.0000 0.65203  0.40915  0.48184  Biso   1.000  C 
  H238     1.0000 0.61307  0.37774  0.49746  Biso   1.000  H 
  H239     1.0000 0.63781  0.42729  0.43280  Biso   1.000  H 
  C192     1.0000 0.65422  0.46514  0.52972  Biso   1.000  C 
  H240     1.0000 0.63583  0.44955  0.57767  Biso   1.000  H 
  C193     1.0000 0.61453  0.52096  0.50965  Biso   1.000  C 
  H241     1.0000 0.70448  0.47397  0.53073  Biso   1.000  H 
  H242     1.0000 0.56773  0.50504  0.49536  Biso   1.000  H 
  H243     1.0000 0.63719  0.54087  0.46957  Biso   1.000  H 
  H244     1.0000 0.60717  0.56300  0.54312  Biso   1.000  H 
  C194     1.0000 0.84215  0.08862  0.52527  Biso   1.000  C 
  H245     1.0000 0.77898  0.13552  0.58444  Biso   1.000  H 
  H246     1.0000 0.88405  0.12054  0.52406  Biso   1.000  H 
  C195     1.0000 0.83677  0.04181  0.46860  Biso   1.000  C 
  H247     1.0000 0.84536  0.06202  0.56896  Biso   1.000  H 
  H248     1.0000 0.84085  0.06763  0.42221  Biso   1.000  H 
  H249     1.0000 0.78999  0.01730  0.47269  Biso   1.000  H 
  C196     1.0000 0.88810  0.99353  0.47289  Biso   1.000  C 
  H250     1.0000 0.93278  0.01667  0.47422  Biso   1.000  H 
  H251     1.0000 0.88265  0.95783  0.43386  Biso   1.000  H 
  H252     1.0000 0.88263  0.96919  0.51911  Biso   1.000  H 
  C197     1.0000 0.34640  0.84640  0.50000  Biso   1.000  C 
  O81      1.0000 0.40471  0.82954  0.50000  Biso   1.000  O 
  O82      1.0000 0.32954  0.90471  0.50000  Biso   1.000  O 
  C198     1.0000 0.29500  0.79500  0.50000  Biso   1.000  C 
  C199     1.0000 0.23249  0.81563  0.50000  Biso   1.000  C 
  N29      1.0000 0.21865  0.87985  0.46450  Biso   1.000  N 
  H253     1.0000 0.13051  0.77872  0.50000  Biso   1.000  H 
  C200     1.0000 0.18442  0.76752  0.50000  Biso   1.000  C 
  C201     1.0000 0.20500  0.70501  0.50000  Biso   1.000  C 
  C202     1.0000 0.26751  0.68442  0.50000  Biso   1.000  C 
  C203     1.0000 0.31563  0.73249  0.50000  Biso   1.000  C 
  H254     1.0000 0.36954  0.72128  0.50000  Biso   1.000  H 
  N30      1.0000 0.28137  0.61847  0.53119  Biso   1.000  N 
  O83      1.0000 0.17046  0.59530  0.50000  Biso   1.000  O 
  C204     1.0000 0.15360  0.65361  0.50000  Biso   1.000  C 
  O84      1.0000 0.09529  0.67047  0.50000  Biso   1.000  O 
  H255     1.0000 0.22608  0.86948  0.41537  Biso   1.000  H 
  C205     1.0000 0.15625  0.91037  0.47787  Biso   1.000  C 
  H256     1.0000 0.12401  0.87697  0.50049  Biso   1.000  H 
  H257     1.0000 0.13355  0.92850  0.43651  Biso   1.000  H 
  C206     1.0000 0.17026  0.96247  0.52770  Biso   1.000  C 
  H258     1.0000 0.15659  0.94230  0.57601  Biso   1.000  H 
  C207     1.0000 0.12756  0.01963  0.51822  Biso   1.000  C 
  H259     1.0000 0.22246  0.97886  0.52556  Biso   1.000  H 
  H260     1.0000 0.07875  0.00306  0.52175  Biso   1.000  H 
  H261     1.0000 0.13398  0.04075  0.47106  Biso   1.000  H 
  H262     1.0000 0.13754  0.05549  0.55459  Biso   1.000  H 
  C208     1.0000 0.33705  0.59024  0.50663  Biso   1.000  C 
  H263     1.0000 0.28898  0.62709  0.58091  Biso   1.000  H 
  H264     1.0000 0.35641  0.61663  0.46343  Biso   1.000  H 
  C209     1.0000 0.32242  0.52245  0.48898  Biso   1.000  C 
  H265     1.0000 0.37726  0.58664  0.54299  Biso   1.000  H 
  H266     1.0000 0.27428  0.52152  0.46474  Biso   1.000  H 
  H267     1.0000 0.31994  0.49061  0.53024  Biso   1.000  H 
  C210     1.0000 0.37040  0.48987  0.44821  Biso   1.000  C 
  H268     1.0000 0.38081  0.52090  0.40667  Biso   1.000  H 
  H269     1.0000 0.35470  0.44221  0.43320  Biso   1.000  H 
  H270     1.0000 0.41223  0.48452  0.48041  Biso   1.000  H 
  C211     1.0000 0.34640  0.34640  0.00000  Biso   1.000  C 
  O85      1.0000 0.40471  0.32954  0.00000  Biso   1.000  O 
  O86      1.0000 0.32954  0.40471  0.00000  Biso   1.000  O 
  C212     1.0000 0.29500  0.29500  0.00000  Biso   1.000  C 
  C213     1.0000 0.23249  0.31563  0.00000  Biso   1.000  C 
  N31      1.0000 0.21947  0.37157  0.95134  Biso   1.000  N 
  H271     1.0000 0.13051  0.27872  0.00000  Biso   1.000  H 
  C214     1.0000 0.18442  0.26751  0.00000  Biso   1.000  C 
  C215     1.0000 0.20500  0.20500  0.00000  Biso   1.000  C 
  C216     1.0000 0.26751  0.18442  0.00000  Biso   1.000  C 
  C217     1.0000 0.31563  0.23249  0.00000  Biso   1.000  C 
  H272     1.0000 0.36954  0.22128  0.00000  Biso   1.000  H 
  N32      1.0000 0.28382  0.12189  0.03585  Biso   1.000  N 
  O87      1.0000 0.17046  0.09530  0.00000  Biso   1.000  O 
  C218     1.0000 0.15360  0.15360  0.00000  Biso   1.000  C 
  O88      1.0000 0.09529  0.17046  0.00000  Biso   1.000  O 
  H273     1.0000 0.21857  0.35314  0.90427  Biso   1.000  H 
  C219     1.0000 0.16488  0.41206  0.96456  Biso   1.000  C 
  H274     1.0000 0.12285  0.38706  0.98512  Biso   1.000  H 
  H275     1.0000 0.15124  0.43666  0.92157  Biso   1.000  H 
  C220     1.0000 0.18865  0.45938  0.01432  Biso   1.000  C 
  H276     1.0000 0.20097  0.43189  0.05873  Biso   1.000  H 
  C221     1.0000 0.13503  0.50915  0.03046  Biso   1.000  C 
  H277     1.0000 0.23510  0.48083  0.99585  Biso   1.000  H 
  H278     1.0000 0.08872  0.48198  0.04115  Biso   1.000  H 
  H279     1.0000 0.12742  0.53405  0.98477  Biso   1.000  H 
  H280     1.0000 0.14796  0.54491  0.06696  Biso   1.000  H 
  C222     1.0000 0.34424  0.09253  0.01750  Biso   1.000  C 
  H281     1.0000 0.28483  0.12854  0.08705  Biso   1.000  H 
  H282     1.0000 0.36272  0.12226  0.97573  Biso   1.000  H 
  C223     1.0000 0.33465  0.02488  0.99654  Biso   1.000  C 
  H283     1.0000 0.37948  0.09108  0.06024  Biso   1.000  H 
  H284     1.0000 0.28440  0.01902  0.97969  Biso   1.000  H 
  H285     1.0000 0.34356  0.99279  0.03759  Biso   1.000  H 
  C224     1.0000 0.38087  0.01183  0.94432  Biso   1.000  C 
  H286     1.0000 0.38028  0.04704  0.90308  Biso   1.000  H 
  H287     1.0000 0.36950  0.96474  0.92666  Biso   1.000  H 
  H288     1.0000 0.42963  0.01765  0.96641  Biso   1.000  H 
  C225     1.0000 0.00000  0.84640  0.15360  Biso   1.000  C 
  O89      1.0000 0.00000  0.90471  0.17046  Biso   1.000  O 
  O90      1.0000 0.00000  0.82954  0.09529  Biso   1.000  O 
  C226     1.0000 0.00000  0.79500  0.20500  Biso   1.000  C 
  C227     1.0000 0.00000  0.73249  0.18437  Biso   1.000  C 
  N33      1.0000 0.95967  0.71301  0.12568  Biso   1.000  N 
  H289     1.0000 0.00000  0.63051  0.22128  Biso   1.000  H 
  C228     1.0000 0.00000  0.68442  0.23249  Biso   1.000  C 
  C229     1.0000 0.00000  0.70500  0.29500  Biso   1.000  C 
  C230     1.0000 0.00000  0.76751  0.31558  Biso   1.000  C 
  C231     1.0000 0.00000  0.81563  0.26751  Biso   1.000  C 
  H290     1.0000 0.00000  0.86954  0.27872  Biso   1.000  H 
  N34      1.0000 0.04238  0.78511  0.37344  Biso   1.000  N 
  O91      1.0000 0.00000  0.67046  0.40470  Biso   1.000  O 
  C232     1.0000 0.00000  0.65360  0.34640  Biso   1.000  C 
  O92      1.0000 0.00000  0.59529  0.32954  Biso   1.000  O 
  H291     1.0000 0.97844  0.72478  0.08101  Biso   1.000  H 
  C233     1.0000 0.89096  0.73404  0.13845  Biso   1.000  C 
  H292     1.0000 0.86443  0.70735  0.10213  Biso   1.000  H 
  H293     1.0000 0.88458  0.78572  0.13046  Biso   1.000  H 
  C234     1.0000 0.85982  0.72125  0.20700  Biso   1.000  C 
  H294     1.0000 0.88477  0.73913  0.25009  Biso   1.000  H 
  C235     1.0000 0.84621  0.64920  0.21808  Biso   1.000  C 
  H295     1.0000 0.81027  0.74033  0.20747  Biso   1.000  H 
  H296     1.0000 0.83667  0.62207  0.17417  Biso   1.000  H 
  H297     1.0000 0.80389  0.64131  0.24951  Biso   1.000  H 
  H298     1.0000 0.88791  0.62682  0.24315  Biso   1.000  H 
  C236     1.0000 0.11219  0.76845  0.36490  Biso   1.000  C 
  H299     1.0000 0.02504  0.76940  0.41634  Biso   1.000  H 
  H300     1.0000 0.14001  0.80544  0.39031  Biso   1.000  H 
  C237     1.0000 0.13839  0.76503  0.29571  Biso   1.000  C 
  H301     1.0000 0.12242  0.72048  0.38692  Biso   1.000  H 
  H302     1.0000 0.11173  0.73110  0.26419  Biso   1.000  H 
  H303     1.0000 0.18919  0.74376  0.30067  Biso   1.000  H 
  C238     1.0000 0.14934  0.82779  0.25772  Biso   1.000  C 
  H304     1.0000 0.12067  0.86721  0.28072  Biso   1.000  H 
  H305     1.0000 0.13363  0.82509  0.20581  Biso   1.000  H 
  H306     1.0000 0.20202  0.84115  0.25942  Biso   1.000  H 
  C239     1.0000 0.00000  0.34640  0.65360  Biso   1.000  C 
  O93      1.0000 0.00000  0.40471  0.67046  Biso   1.000  O 
  O94      1.0000 0.00000  0.32954  0.59529  Biso   1.000  O 
  C240     1.0000 0.00000  0.29500  0.70500  Biso   1.000  C 
  C241     1.0000 0.00000  0.23249  0.68437  Biso   1.000  C 
  N35      1.0000 0.96032  0.21358  0.62699  Biso   1.000  N 
  H307     1.0000 0.00000  0.13051  0.72128  Biso   1.000  H 
  C242     1.0000 0.00000  0.18442  0.73248  Biso   1.000  C 
  C243     1.0000 0.00000  0.20500  0.79499  Biso   1.000  C 
  C244     1.0000 0.00000  0.26751  0.81558  Biso   1.000  C 
  C245     1.0000 0.00000  0.31563  0.76751  Biso   1.000  C 
  H308     1.0000 0.00000  0.36954  0.77872  Biso   1.000  H 
  N36      1.0000 0.04615  0.28574  0.87122  Biso   1.000  N 
  O95      1.0000 0.00000  0.17046  0.90470  Biso   1.000  O 
  C246     1.0000 0.00000  0.15360  0.84639  Biso   1.000  C 
  O96      1.0000 0.00000  0.09529  0.82953  Biso   1.000  O 
  H309     1.0000 0.98328  0.22571  0.58592  Biso   1.000  H 
  C247     1.0000 0.89038  0.23315  0.63456  Biso   1.000  C 
  H310     1.0000 0.86202  0.20428  0.60223  Biso   1.000  H 
  H311     1.0000 0.88550  0.28414  0.62005  Biso   1.000  H 
  C248     1.0000 0.85966  0.22885  0.70387  Biso   1.000  C 
  H312     1.0000 0.88788  0.25536  0.74254  Biso   1.000  H 
  C249     1.0000 0.84868  0.15936  0.72794  Biso   1.000  C 
  H313     1.0000 0.80888  0.24757  0.70095  Biso   1.000  H 
  H314     1.0000 0.89162  0.13128  0.73420  Biso   1.000  H 
  H315     1.0000 0.81319  0.13278  0.69727  Biso   1.000  H 
  H316     1.0000 0.82839  0.16349  0.77515  Biso   1.000  H 
  C250     1.0000 0.11295  0.25847  0.86271  Biso   1.000  C 
  H317     1.0000 0.02363  0.28116  0.91610  Biso   1.000  H 
  H318     1.0000 0.14396  0.28864  0.89203  Biso   1.000  H 
  C251     1.0000 0.14221  0.25805  0.79400  Biso   1.000  C 
  H319     1.0000 0.11488  0.20739  0.88064  Biso   1.000  H 
  H320     1.0000 0.11178  0.23930  0.75769  Biso   1.000  H 
  H321     1.0000 0.18507  0.22835  0.79395  Biso   1.000  H 
  C252     1.0000 0.16543  0.32425  0.76864  Biso   1.000  C 
  H322     1.0000 0.12517  0.36001  0.76617  Biso   1.000  H 
  H323     1.0000 0.18270  0.31604  0.71852  Biso   1.000  H 
  H324     1.0000 0.20477  0.34358  0.79935  Biso   1.000  H 
  C253     1.0000 0.50000  0.84640  0.65360  Biso   1.000  C 
  O97      1.0000 0.50000  0.90471  0.67046  Biso   1.000  O 
  O98      1.0000 0.50000  0.82954  0.59529  Biso   1.000  O 
  C254     1.0000 0.50000  0.79500  0.70500  Biso   1.000  C 
  C255     1.0000 0.50000  0.73249  0.68437  Biso   1.000  C 
  N37      1.0000 0.46221  0.71390  0.62445  Biso   1.000  N 
  H325     1.0000 0.50000  0.63051  0.72128  Biso   1.000  H 
  C256     1.0000 0.50000  0.68442  0.73248  Biso   1.000  C 
  C257     1.0000 0.50000  0.70500  0.79499  Biso   1.000  C 
  C258     1.0000 0.50000  0.76751  0.81558  Biso   1.000  C 
  C259     1.0000 0.50000  0.81563  0.76751  Biso   1.000  C 
  H326     1.0000 0.50000  0.86954  0.77872  Biso   1.000  H 
  N38      1.0000 0.53234  0.78488  0.87771  Biso   1.000  N 
  O99      1.0000 0.50000  0.67046  0.90470  Biso   1.000  O 
  C260     1.0000 0.50000  0.65360  0.84639  Biso   1.000  C 
  O100     1.0000 0.50000  0.59529  0.82953  Biso   1.000  O 
  H327     1.0000 0.47884  0.72743  0.58022  Biso   1.000  H 
  C261     1.0000 0.39306  0.72787  0.63314  Biso   1.000  C 
  H328     1.0000 0.36627  0.69272  0.60551  Biso   1.000  H 
  H329     1.0000 0.38348  0.77570  0.61337  Biso   1.000  H 
  C262     1.0000 0.35995  0.72357  0.70090  Biso   1.000  C 
  H330     1.0000 0.38348  0.75027  0.74054  Biso   1.000  H 
  C263     1.0000 0.34918  0.65541  0.72259  Biso   1.000  C 
  H331     1.0000 0.31009  0.74727  0.69112  Biso   1.000  H 
  H332     1.0000 0.29452  0.64563  0.71784  Biso   1.000  H 
  H333     1.0000 0.36358  0.65265  0.77402  Biso   1.000  H 
  H334     1.0000 0.37575  0.62273  0.69174  Biso   1.000  H 
  C264     1.0000 0.60161  0.77428  0.87987  Biso   1.000  C 
  H335     1.0000 0.50590  0.77216  0.91863  Biso   1.000  H 
  H336     1.0000 0.62270  0.81211  0.90851  Biso   1.000  H 
  C265     1.0000 0.64122  0.78370  0.81849  Biso   1.000  C 
  H337     1.0000 0.61045  0.72652  0.90055  Biso   1.000  H 
  H338     1.0000 0.62867  0.74734  0.78153  Biso   1.000  H 
  H339     1.0000 0.69209  0.77536  0.82900  Biso   1.000  H 
  C266     1.0000 0.64192  0.85239  0.79278  Biso   1.000  C 
  H340     1.0000 0.68405  0.87494  0.81718  Biso   1.000  H 
  H341     1.0000 0.59941  0.88169  0.80165  Biso   1.000  H 
  H342     1.0000 0.64908  0.85231  0.73986  Biso   1.000  H 
  C267     1.0000 0.50000  0.34640  0.15360  Biso   1.000  C 
  O101     1.0000 0.50000  0.40471  0.17046  Biso   1.000  O 
  O102     1.0000 0.50000  0.32954  0.09529  Biso   1.000  O 
  C268     1.0000 0.50000  0.29500  0.20500  Biso   1.000  C 
  C269     1.0000 0.50000  0.23249  0.18437  Biso   1.000  C 
  N39      1.0000 0.46006  0.21358  0.12684  Biso   1.000  N 
  H343     1.0000 0.50000  0.13051  0.22128  Biso   1.000  H 
  C270     1.0000 0.50000  0.18442  0.23249  Biso   1.000  C 
  C271     1.0000 0.50000  0.20500  0.29500  Biso   1.000  C 
  C272     1.0000 0.50000  0.26751  0.31558  Biso   1.000  C 
  C273     1.0000 0.50000  0.31563  0.26751  Biso   1.000  C 
  H344     1.0000 0.50000  0.36954  0.27872  Biso   1.000  H 
  N40      1.0000 0.54590  0.28711  0.36955  Biso   1.000  N 
  O103     1.0000 0.50000  0.17046  0.40470  Biso   1.000  O 
  C274     1.0000 0.50000  0.15360  0.34640  Biso   1.000  C 
  O104     1.0000 0.50000  0.09529  0.32954  Biso   1.000  O 
  H345     1.0000 0.48485  0.22822  0.08418  Biso   1.000  H 
  C275     1.0000 0.39375  0.23897  0.13385  Biso   1.000  C 
  H346     1.0000 0.36553  0.20730  0.10337  Biso   1.000  H 
  H347     1.0000 0.38916  0.29025  0.11681  Biso   1.000  H 
  C276     1.0000 0.36150  0.23511  0.20007  Biso   1.000  C 
  H348     1.0000 0.39034  0.25813  0.23791  Biso   1.000  H 
  C277     1.0000 0.33862  0.16864  0.21780  Biso   1.000  C 
  H349     1.0000 0.31839  0.26387  0.19816  Biso   1.000  H 
  H350     1.0000 0.36876  0.13335  0.19575  Biso   1.000  H 
  H351     1.0000 0.28702  0.16010  0.20783  Biso   1.000  H 
  H352     1.0000 0.34891  0.16488  0.27153  Biso   1.000  H 
  C278     1.0000 0.61268  0.26491  0.35751  Biso   1.000  C 
  H353     1.0000 0.53041  0.26806  0.41077  Biso   1.000  H 
  H354     1.0000 0.64306  0.29140  0.39151  Biso   1.000  H 
  C279     1.0000 0.64089  0.27589  0.29054  Biso   1.000  C 
  H355     1.0000 0.61669  0.21345  0.36900  Biso   1.000  H 
  H356     1.0000 0.61398  0.25541  0.24959  Biso   1.000  H 
  H357     1.0000 0.68797  0.25231  0.29088  Biso   1.000  H 
  C280     1.0000 0.65337  0.34660  0.27981  Biso   1.000  C 
  H358     1.0000 0.69327  0.36023  0.31466  Biso   1.000  H 
  H359     1.0000 0.61031  0.37446  0.28915  Biso   1.000  H 
  H360     1.0000 0.66519  0.35608  0.22928  Biso   1.000  H 
  C281     1.0000 0.00000  0.84640  0.84640  Biso   1.000  C 
  O105     1.0000 0.00000  0.90471  0.82954  Biso   1.000  O 
  O106     1.0000 0.00000  0.82954  0.90471  Biso   1.000  O 
  C282     1.0000 0.00000  0.79500  0.79500  Biso   1.000  C 
  C283     1.0000 0.00000  0.73249  0.81563  Biso   1.000  C 
  N41      1.0000 0.96114  0.71843  0.87721  Biso   1.000  N 
  H361     1.0000 0.00000  0.63051  0.77872  Biso   1.000  H 
  C284     1.0000 0.00000  0.68442  0.76752  Biso   1.000  C 
  C285     1.0000 0.00000  0.70500  0.70501  Biso   1.000  C 
  C286     1.0000 0.00000  0.76751  0.68442  Biso   1.000  C 
  C287     1.0000 0.00000  0.81563  0.73249  Biso   1.000  C 
  H362     1.0000 0.00000  0.86954  0.72128  Biso   1.000  H 
  N42      1.0000 0.02507  0.78291  0.61830  Biso   1.000  N 
  O107     1.0000 0.00000  0.67046  0.59530  Biso   1.000  O 
  C288     1.0000 0.00000  0.65360  0.65361  Biso   1.000  C 
  O108     1.0000 0.00000  0.59529  0.67047  Biso   1.000  O 
  H363     1.0000 0.91351  0.72180  0.86180  Biso   1.000  H 
  C289     1.0000 0.97539  0.66010  0.91422  Biso   1.000  C 
  H364     1.0000 0.98415  0.62086  0.88237  Biso   1.000  H 
  H365     1.0000 0.93156  0.64851  0.93984  Biso   1.000  H 
  C290     1.0000 0.03029  0.67649  0.96164  Biso   1.000  C 
  H366     1.0000 0.07634  0.67249  0.93460  Biso   1.000  H 
  C291     1.0000 0.02871  0.63036  0.01726  Biso   1.000  C 
  H367     1.0000 0.02377  0.72735  0.97922  Biso   1.000  H 
  H368     1.0000 0.03380  0.58446  0.99219  Biso   1.000  H 
  H369     1.0000 0.98103  0.63069  0.04238  Biso   1.000  H 
  H370     1.0000 0.06553  0.64055  0.05358  Biso   1.000  H 
  C292     1.0000 0.99362  0.83588  0.58974  Biso   1.000  C 
  H371     1.0000 0.07396  0.79482  0.62095  Biso   1.000  H 
  H372     1.0000 0.94547  0.84688  0.60761  Biso   1.000  H 
  C293     1.0000 0.99640  0.82003  0.51912  Biso   1.000  C 
  H373     1.0000 0.02094  0.88161  0.59985  Biso   1.000  H 
  H374     1.0000 0.97457  0.77142  0.51367  Biso   1.000  H 
  H375     1.0000 0.04548  0.81832  0.50117  Biso   1.000  H 
  C294     1.0000 0.96250  0.86864  0.47956  Biso   1.000  C 
  H376     1.0000 0.91132  0.86618  0.49388  Biso   1.000  H 
  H377     1.0000 0.96788  0.85988  0.42772  Biso   1.000  H 
  H378     1.0000 0.98092  0.91466  0.49017  Biso   1.000  H 
  C295     1.0000 0.00000  0.34640  0.34640  Biso   1.000  C 
  O109     1.0000 0.00000  0.40471  0.32954  Biso   1.000  O 
  O110     1.0000 0.00000  0.32954  0.40471  Biso   1.000  O 
  C296     1.0000 0.00000  0.29500  0.29500  Biso   1.000  C 
  C297     1.0000 0.00000  0.23249  0.31563  Biso   1.000  C 
  N43      1.0000 0.95669  0.22069  0.37273  Biso   1.000  N 
  H379     1.0000 0.00000  0.13051  0.27872  Biso   1.000  H 
  C298     1.0000 0.00000  0.18442  0.26751  Biso   1.000  C 
  C299     1.0000 0.00000  0.20500  0.20500  Biso   1.000  C 
  C300     1.0000 0.00000  0.26751  0.18442  Biso   1.000  C 
  C301     1.0000 0.00000  0.31563  0.23249  Biso   1.000  C 
  H380     1.0000 0.00000  0.36954  0.22128  Biso   1.000  H 
  N44      1.0000 0.04618  0.28205  0.12901  Biso   1.000  N 
  O111     1.0000 0.00000  0.17046  0.09530  Biso   1.000  O 
  C302     1.0000 0.00000  0.15360  0.15360  Biso   1.000  C 
  O112     1.0000 0.00000  0.09529  0.17046  Biso   1.000  O 
  H381     1.0000 0.91075  0.21853  0.35557  Biso   1.000  H 
  C303     1.0000 0.97437  0.16778  0.41558  Biso   1.000  C 
  H382     1.0000 0.99756  0.13002  0.38964  Biso   1.000  H 
  H383     1.0000 0.92994  0.14824  0.43634  Biso   1.000  H 
  C304     1.0000 0.02194  0.19017  0.46470  Biso   1.000  C 
  H384     1.0000 0.06797  0.19513  0.43559  Biso   1.000  H 
  C305     1.0000 0.03709  0.13846  0.51522  Biso   1.000  C 
  H385     1.0000 0.00913  0.23745  0.48385  Biso   1.000  H 
  H386     1.0000 0.04184  0.09373  0.48683  Biso   1.000  H 
  H387     1.0000 0.99459  0.13081  0.54795  Biso   1.000  H 
  H388     1.0000 0.08127  0.14606  0.54283  Biso   1.000  H 
  C306     1.0000 0.03165  0.33628  0.09189  Biso   1.000  C 
  H389     1.0000 0.09314  0.28539  0.14753  Biso   1.000  H 
  H390     1.0000 0.03502  0.38495  0.11656  Biso   1.000  H 
  C307     1.0000 0.96351  0.32756  0.05972  Biso   1.000  C 
  H391     1.0000 0.06629  0.33802  0.05428  Biso   1.000  H 
  H392     1.0000 0.92754  0.32652  0.09974  Biso   1.000  H 
  H393     1.0000 0.96333  0.28000  0.03646  Biso   1.000  H 
  C308     1.0000 0.94271  0.38031  0.01329  Biso   1.000  C 
  H394     1.0000 0.89883  0.40612  0.02798  Biso   1.000  H 
  H395     1.0000 0.93728  0.35589  0.96492  Biso   1.000  H 
  H396     1.0000 0.98241  0.41582  0.01472  Biso   1.000  H 
  C309     1.0000 0.50000  0.84640  0.34640  Biso   1.000  C 
  O113     1.0000 0.50000  0.90471  0.32954  Biso   1.000  O 
  O114     1.0000 0.50000  0.82954  0.40471  Biso   1.000  O 
  C310     1.0000 0.50000  0.79500  0.29500  Biso   1.000  C 
  C311     1.0000 0.50000  0.73249  0.31563  Biso   1.000  C 
  N45      1.0000 0.48118  0.71133  0.38333  Biso   1.000  N 
  H397     1.0000 0.50000  0.63051  0.27872  Biso   1.000  H 
  C312     1.0000 0.50000  0.68442  0.26751  Biso   1.000  C 
  C313     1.0000 0.50000  0.70500  0.20500  Biso   1.000  C 
  C314     1.0000 0.50000  0.76751  0.18442  Biso   1.000  C 
  C315     1.0000 0.50000  0.81563  0.23249  Biso   1.000  C 
  H398     1.0000 0.50000  0.86954  0.22128  Biso   1.000  H 
  N46      1.0000 0.52895  0.78355  0.11980  Biso   1.000  N 
  O115     1.0000 0.50000  0.67046  0.09530  Biso   1.000  O 
  C316     1.0000 0.50000  0.65360  0.15360  Biso   1.000  C 
  O116     1.0000 0.50000  0.59529  0.17046  Biso   1.000  O 
  H399     1.0000 0.43171  0.70920  0.38616  Biso   1.000  H 
  C317     1.0000 0.51243  0.64943  0.40080  Biso   1.000  C 
  H400     1.0000 0.55198  0.63867  0.36732  Biso   1.000  H 
  H401     1.0000 0.47658  0.60939  0.39594  Biso   1.000  H 
  C318     1.0000 0.53772  0.64918  0.47021  Biso   1.000  C 
  H402     1.0000 0.58705  0.62914  0.46727  Biso   1.000  H 
  C319     1.0000 0.48929  0.61782  0.51460  Biso   1.000  C 
  H403     1.0000 0.54012  0.69847  0.49103  Biso   1.000  H 
  H404     1.0000 0.47327  0.57047  0.49660  Biso   1.000  H 
  H405     1.0000 0.44837  0.65279  0.51432  Biso   1.000  H 
  H406     1.0000 0.51369  0.61285  0.56111  Biso   1.000  H 
  C320     1.0000 0.51123  0.84610  0.09170  Biso   1.000  C 
  H407     1.0000 0.57722  0.78488  0.13052  Biso   1.000  H 
  H408     1.0000 0.46763  0.86079  0.11601  Biso   1.000  H 
  C321     1.0000 0.49393  0.83583  0.01865  Biso   1.000  C 
  H409     1.0000 0.54837  0.88471  0.10120  Biso   1.000  H 
  H410     1.0000 0.47438  0.78731  0.01706  Biso   1.000  H 
  H411     1.0000 0.53848  0.84571  0.98927  Biso   1.000  H 
  C322     1.0000 0.44407  0.88445  0.99601  Biso   1.000  C 
  H412     1.0000 0.39713  0.88017  0.02107  Biso   1.000  H 
  H413     1.0000 0.43502  0.87553  0.94402  Biso   1.000  H 
  H414     1.0000 0.46807  0.93144  0.00714  Biso   1.000  H 
  C323     1.0000 0.50000  0.34640  0.84640  Biso   1.000  C 
  O117     1.0000 0.50000  0.40471  0.82954  Biso   1.000  O 
  O118     1.0000 0.50000  0.32954  0.90471  Biso   1.000  O 
  C324     1.0000 0.50000  0.29500  0.79500  Biso   1.000  C 
  C325     1.0000 0.50000  0.23249  0.81563  Biso   1.000  C 
  N47      1.0000 0.47723  0.21481  0.88268  Biso   1.000  N 
  H415     1.0000 0.50000  0.13051  0.77872  Biso   1.000  H 
  C326     1.0000 0.50000  0.18442  0.76752  Biso   1.000  C 
  C327     1.0000 0.50000  0.20500  0.70501  Biso   1.000  C 
  C328     1.0000 0.50000  0.26751  0.68442  Biso   1.000  C 
  C329     1.0000 0.50000  0.31563  0.73249  Biso   1.000  C 
  H416     1.0000 0.50000  0.36954  0.72128  Biso   1.000  H 
  N48      1.0000 0.54158  0.28033  0.62466  Biso   1.000  N 
  O119     1.0000 0.50000  0.17046  0.59530  Biso   1.000  O 
  C330     1.0000 0.50000  0.15360  0.65361  Biso   1.000  C 
  O120     1.0000 0.50000  0.09529  0.67047  Biso   1.000  O 
  H417     1.0000 0.42727  0.21695  0.88135  Biso   1.000  H 
  C331     1.0000 0.50007  0.15322  0.90264  Biso   1.000  C 
  H418     1.0000 0.53982  0.13518  0.86994  Biso   1.000  H 
  H419     1.0000 0.45911  0.11939  0.90627  Biso   1.000  H 
  C332     1.0000 0.53177  0.16258  0.96551  Biso   1.000  C 
  H420     1.0000 0.58050  0.14401  0.96289  Biso   1.000  H 
  C333     1.0000 0.50569  0.12610  0.01679  Biso   1.000  C 
  H421     1.0000 0.53079  0.21448  0.98167  Biso   1.000  H 
  H422     1.0000 0.51071  0.07408  0.00691  Biso   1.000  H 
  H423     1.0000 0.45535  0.14283  0.01888  Biso   1.000  H 
  H424     1.0000 0.53730  0.14343  0.05573  Biso   1.000  H 
  C334     1.0000 0.52481  0.33782  0.58956  Biso   1.000  C 
  H425     1.0000 0.59073  0.28194  0.63689  Biso   1.000  H 
  H426     1.0000 0.48644  0.36491  0.61502  Biso   1.000  H 
  C335     1.0000 0.49804  0.31577  0.52772  Biso   1.000  C 
  H427     1.0000 0.56918  0.36900  0.58692  Biso   1.000  H 
  H428     1.0000 0.46232  0.27810  0.53663  Biso   1.000  H 
  H429     1.0000 0.53762  0.29322  0.50043  Biso   1.000  H 
  C336     1.0000 0.46979  0.37082  0.49152  Biso   1.000  C 
  H430     1.0000 0.42639  0.38863  0.51844  Biso   1.000  H 
  H431     1.0000 0.45388  0.34947  0.44587  Biso   1.000  H 
  H432     1.0000 0.50421  0.40879  0.48520  Biso   1.000  H 
