data_image0
_cell_length_a       26.896
_cell_length_b       26.896
_cell_length_c       26.896
_cell_angle_alpha    90
_cell_angle_beta     90
_cell_angle_gamma    90

_symmetry_space_group_name_H-M    "P 1"
_symmetry_int_tables_number       1

loop_
  _symmetry_equiv_pos_as_xyz
  'x, y, z'

loop_
  _atom_site_label
  _atom_site_occupancy
  _atom_site_fract_x
  _atom_site_fract_y
  _atom_site_fract_z
  _atom_site_thermal_displace_type
  _atom_site_B_iso_or_equiv
  _atom_site_type_symbol
  Zr1      1.0000 0.09204  0.00000  0.00000  Biso   1.000  Zr
  Zr2      1.0000 0.90796  0.00000  0.00000  Biso   1.000  Zr
  Zr3      1.0000 0.00000  0.09204  0.00000  Biso   1.000  Zr
  Zr4      1.0000 0.00000  0.90796  0.00000  Biso   1.000  Zr
  Zr5      1.0000 0.00000  0.00000  0.09204  Biso   1.000  Zr
  Zr6      1.0000 0.00000  0.00000  0.90796  Biso   1.000  Zr
  Zr7      1.0000 0.09204  0.50000  0.50000  Biso   1.000  Zr
  Zr8      1.0000 0.90796  0.50000  0.50000  Biso   1.000  Zr
  Zr9      1.0000 0.00000  0.59204  0.50000  Biso   1.000  Zr
  Zr10     1.0000 0.00000  0.40796  0.50000  Biso   1.000  Zr
  Zr11     1.0000 0.00000  0.50000  0.59204  Biso   1.000  Zr
  Zr12     1.0000 0.00000  0.50000  0.40796  Biso   1.000  Zr
  Zr13     1.0000 0.59204  0.00000  0.50000  Biso   1.000  Zr
  Zr14     1.0000 0.40796  0.00000  0.50000  Biso   1.000  Zr
  Zr15     1.0000 0.50000  0.09204  0.50000  Biso   1.000  Zr
  Zr16     1.0000 0.50000  0.90796  0.50000  Biso   1.000  Zr
  Zr17     1.0000 0.50000  0.00000  0.59204  Biso   1.000  Zr
  Zr18     1.0000 0.50000  0.00000  0.40796  Biso   1.000  Zr
  Zr19     1.0000 0.59204  0.50000  0.00000  Biso   1.000  Zr
  Zr20     1.0000 0.40796  0.50000  0.00000  Biso   1.000  Zr
  Zr21     1.0000 0.50000  0.59204  0.00000  Biso   1.000  Zr
  Zr22     1.0000 0.50000  0.40796  0.00000  Biso   1.000  Zr
  Zr23     1.0000 0.50000  0.50000  0.09204  Biso   1.000  Zr
  Zr24     1.0000 0.50000  0.50000  0.90796  Biso   1.000  Zr
  O1       1.0000 0.04540  0.04540  0.04540  Biso   1.000  O 
  O2       1.0000 0.95460  0.95460  0.04540  Biso   1.000  O 
  O3       1.0000 0.95460  0.04540  0.95460  Biso   1.000  O 
  O4       1.0000 0.04540  0.95460  0.95460  Biso   1.000  O 
  O5       1.0000 0.04540  0.04540  0.95460  Biso   1.000  O 
  O6       1.0000 0.95460  0.95460  0.95460  Biso   1.000  O 
  O7       1.0000 0.04540  0.95460  0.04540  Biso   1.000  O 
  O8       1.0000 0.95460  0.04540  0.04540  Biso   1.000  O 
  O9       1.0000 0.04540  0.54540  0.54540  Biso   1.000  O 
  O10      1.0000 0.95460  0.45460  0.54540  Biso   1.000  O 
  O11      1.0000 0.95460  0.54540  0.45460  Biso   1.000  O 
  O12      1.0000 0.04540  0.45460  0.45460  Biso   1.000  O 
  O13      1.0000 0.04540  0.54540  0.45460  Biso   1.000  O 
  O14      1.0000 0.95460  0.45460  0.45460  Biso   1.000  O 
  O15      1.0000 0.04540  0.45460  0.54540  Biso   1.000  O 
  O16      1.0000 0.95460  0.54540  0.54540  Biso   1.000  O 
  O17      1.0000 0.54540  0.04540  0.54540  Biso   1.000  O 
  O18      1.0000 0.45460  0.95460  0.54540  Biso   1.000  O 
  O19      1.0000 0.45460  0.04540  0.45460  Biso   1.000  O 
  O20      1.0000 0.54540  0.95460  0.45460  Biso   1.000  O 
  O21      1.0000 0.54540  0.04540  0.45460  Biso   1.000  O 
  O22      1.0000 0.45460  0.95460  0.45460  Biso   1.000  O 
  O23      1.0000 0.54540  0.95460  0.54540  Biso   1.000  O 
  O24      1.0000 0.45460  0.04540  0.54540  Biso   1.000  O 
  O25      1.0000 0.54540  0.54540  0.04540  Biso   1.000  O 
  O26      1.0000 0.45460  0.45460  0.04540  Biso   1.000  O 
  O27      1.0000 0.45460  0.54540  0.95460  Biso   1.000  O 
  O28      1.0000 0.54540  0.45460  0.95460  Biso   1.000  O 
  O29      1.0000 0.54540  0.54540  0.95460  Biso   1.000  O 
  O30      1.0000 0.45460  0.45460  0.95460  Biso   1.000  O 
  O31      1.0000 0.54540  0.45460  0.04540  Biso   1.000  O 
  O32      1.0000 0.45460  0.54540  0.04540  Biso   1.000  O 
  O33      1.0000 0.13260  0.00000  0.07190  Biso   1.000  O 
  C1       1.0000 0.11720  0.00000  0.11720  Biso   1.000  C 
  O34      1.0000 0.07190  0.00000  0.13260  Biso   1.000  O 
  C2       1.0000 0.15650  0.00000  0.15650  Biso   1.000  C 
  C3       1.0000 0.20580  0.00000  0.14470  Biso   1.000  C 
  C4       1.0000 0.14470  0.00000  0.20580  Biso   1.000  C 
  C5       1.0000 0.24200  0.00000  0.17950  Biso   1.000  C 
  H1       1.0000 0.21490  0.00000  0.11140  Biso   1.000  H 
  C6       1.0000 0.17950  0.00000  0.24200  Biso   1.000  C 
  H2       1.0000 0.11140  0.00000  0.21490  Biso   1.000  H 
  C7       1.0000 0.23070  0.00000  0.23070  Biso   1.000  C 
  C8       1.0000 0.26930  0.00000  0.26930  Biso   1.000  C 
  H3       1.0000 0.27510  0.00000  0.16950  Biso   1.000  H 
  C9       1.0000 0.32050  0.00000  0.25800  Biso   1.000  C 
  N1       1.0000 0.15798  0.00591  0.29411  Biso   1.000  N 
  C10      1.0000 0.25800  0.00000  0.32050  Biso   1.000  C 
  C11      1.0000 0.35530  0.00000  0.29420  Biso   1.000  C 
  N2       1.0000 0.34262  0.00178  0.20422  Biso   1.000  N 
  C12      1.0000 0.29420  0.00000  0.35530  Biso   1.000  C 
  H4       1.0000 0.22490  0.00000  0.33050  Biso   1.000  H 
  C13      1.0000 0.34350  0.00000  0.34350  Biso   1.000  C 
  C14      1.0000 0.38280  0.00000  0.38280  Biso   1.000  C 
  H5       1.0000 0.38860  0.00000  0.28510  Biso   1.000  H 
  H6       1.0000 0.28510  0.00000  0.38860  Biso   1.000  H 
  O35      1.0000 0.42810  0.00000  0.36740  Biso   1.000  O 
  O36      1.0000 0.36740  0.00000  0.42810  Biso   1.000  O 
  C15      1.0000 0.36143  0.04951  0.18815  Biso   1.000  C 
  C16      1.0000 0.37626  0.96099  0.18791  Biso   1.000  C 
  C17      1.0000 0.14300  0.05525  0.30920  Biso   1.000  C 
  C18      1.0000 0.12647  0.96650  0.31575  Biso   1.000  C 
  H7       1.0000 0.35968  0.94171  0.15516  Biso   1.000  H 
  H8       1.0000 0.38392  0.93547  0.21795  Biso   1.000  H 
  C19      1.0000 0.42683  0.98559  0.17389  Biso   1.000  C 
  H9       1.0000 0.34545  0.06115  0.15289  Biso   1.000  H 
  C20      1.0000 0.41897  0.04096  0.18457  Biso   1.000  C 
  H10      1.0000 0.35541  0.08013  0.21622  Biso   1.000  H 
  H11      1.0000 0.43583  0.05056  0.22140  Biso   1.000  H 
  H12      1.0000 0.43576  0.06427  0.15477  Biso   1.000  H 
  H13      1.0000 0.43517  0.97973  0.13338  Biso   1.000  H 
  H14      1.0000 0.46129  0.97137  0.19525  Biso   1.000  H 
  H15      1.0000 0.14838  0.93609  0.33101  Biso   1.000  H 
  H16      1.0000 0.09916  0.95098  0.29043  Biso   1.000  H 
  C21      1.0000 0.09947  0.99318  0.35859  Biso   1.000  C 
  H17      1.0000 0.12271  0.99319  0.39337  Biso   1.000  H 
  H18      1.0000 0.06149  0.97718  0.36780  Biso   1.000  H 
  C22      1.0000 0.09603  0.04885  0.34291  Biso   1.000  C 
  H19      1.0000 0.13582  0.07646  0.27706  Biso   1.000  H 
  H20      1.0000 0.17443  0.07263  0.32913  Biso   1.000  H 
  H21      1.0000 0.09903  0.07492  0.37541  Biso   1.000  H 
  H22      1.0000 0.06179  0.05912  0.32184  Biso   1.000  H 
  O37      1.0000 0.86740  0.00000  0.07190  Biso   1.000  O 
  C23      1.0000 0.88280  0.00000  0.11720  Biso   1.000  C 
  O38      1.0000 0.92810  0.00000  0.13260  Biso   1.000  O 
  C24      1.0000 0.84350  0.00000  0.15650  Biso   1.000  C 
  C25      1.0000 0.79420  0.00000  0.14470  Biso   1.000  C 
  C26      1.0000 0.85530  0.00000  0.20580  Biso   1.000  C 
  C27      1.0000 0.75800  0.00000  0.17950  Biso   1.000  C 
  H23      1.0000 0.78510  0.00000  0.11140  Biso   1.000  H 
  C28      1.0000 0.82050  0.00000  0.24200  Biso   1.000  C 
  H24      1.0000 0.88860  0.00000  0.21490  Biso   1.000  H 
  C29      1.0000 0.76930  0.00000  0.23070  Biso   1.000  C 
  C30      1.0000 0.73070  0.00000  0.26930  Biso   1.000  C 
  H25      1.0000 0.72490  0.00000  0.16950  Biso   1.000  H 
  C31      1.0000 0.67950  0.00000  0.25800  Biso   1.000  C 
  N3       1.0000 0.84202  0.99408  0.29411  Biso   1.000  N 
  C32      1.0000 0.74200  0.00000  0.32050  Biso   1.000  C 
  C33      1.0000 0.64470  0.00000  0.29420  Biso   1.000  C 
  N4       1.0000 0.65738  0.99822  0.20422  Biso   1.000  N 
  C34      1.0000 0.70580  0.00000  0.35530  Biso   1.000  C 
  H26      1.0000 0.77510  0.00000  0.33050  Biso   1.000  H 
  C35      1.0000 0.65650  0.00000  0.34350  Biso   1.000  C 
  C36      1.0000 0.61720  0.00000  0.38280  Biso   1.000  C 
  H27      1.0000 0.61140  0.00000  0.28510  Biso   1.000  H 
  H28      1.0000 0.71490  0.00000  0.38860  Biso   1.000  H 
  O39      1.0000 0.57190  0.00000  0.36740  Biso   1.000  O 
  O40      1.0000 0.63260  0.00000  0.42810  Biso   1.000  O 
  C37      1.0000 0.63857  0.95049  0.18815  Biso   1.000  C 
  C38      1.0000 0.62374  0.03901  0.18791  Biso   1.000  C 
  C39      1.0000 0.85700  0.94475  0.30920  Biso   1.000  C 
  C40      1.0000 0.87353  0.03349  0.31575  Biso   1.000  C 
  H29      1.0000 0.64032  0.05829  0.15516  Biso   1.000  H 
  H30      1.0000 0.61608  0.06453  0.21795  Biso   1.000  H 
  C41      1.0000 0.57317  0.01441  0.17389  Biso   1.000  C 
  H31      1.0000 0.65455  0.93885  0.15289  Biso   1.000  H 
  C42      1.0000 0.58103  0.95904  0.18457  Biso   1.000  C 
  H32      1.0000 0.64459  0.91987  0.21622  Biso   1.000  H 
  H33      1.0000 0.56417  0.94944  0.22140  Biso   1.000  H 
  H34      1.0000 0.56424  0.93573  0.15477  Biso   1.000  H 
  H35      1.0000 0.56483  0.02027  0.13338  Biso   1.000  H 
  H36      1.0000 0.53871  0.02863  0.19525  Biso   1.000  H 
  H37      1.0000 0.85162  0.06391  0.33101  Biso   1.000  H 
  H38      1.0000 0.90084  0.04902  0.29043  Biso   1.000  H 
  C43      1.0000 0.90053  0.00682  0.35859  Biso   1.000  C 
  H39      1.0000 0.87729  0.00681  0.39337  Biso   1.000  H 
  H40      1.0000 0.93851  0.02282  0.36780  Biso   1.000  H 
  C44      1.0000 0.90397  0.95115  0.34291  Biso   1.000  C 
  H41      1.0000 0.86418  0.92354  0.27706  Biso   1.000  H 
  H42      1.0000 0.82557  0.92737  0.32913  Biso   1.000  H 
  H43      1.0000 0.90097  0.92508  0.37541  Biso   1.000  H 
  H44      1.0000 0.93821  0.94088  0.32184  Biso   1.000  H 
  O41      1.0000 0.86740  0.00000  0.92810  Biso   1.000  O 
  C45      1.0000 0.88280  0.00000  0.88280  Biso   1.000  C 
  O42      1.0000 0.92810  0.00000  0.86740  Biso   1.000  O 
  C46      1.0000 0.84350  0.00000  0.84350  Biso   1.000  C 
  C47      1.0000 0.79420  0.00000  0.85530  Biso   1.000  C 
  C48      1.0000 0.85530  0.00000  0.79420  Biso   1.000  C 
  C49      1.0000 0.75800  0.00000  0.82050  Biso   1.000  C 
  H45      1.0000 0.78510  0.00000  0.88860  Biso   1.000  H 
  C50      1.0000 0.82050  0.00000  0.75800  Biso   1.000  C 
  H46      1.0000 0.88860  0.00000  0.78510  Biso   1.000  H 
  C51      1.0000 0.76930  0.00000  0.76930  Biso   1.000  C 
  C52      1.0000 0.73070  0.00000  0.73070  Biso   1.000  C 
  H47      1.0000 0.72490  0.00000  0.83050  Biso   1.000  H 
  C53      1.0000 0.67950  0.00000  0.74200  Biso   1.000  C 
  N5       1.0000 0.84202  0.00591  0.70589  Biso   1.000  N 
  C54      1.0000 0.74200  0.00000  0.67950  Biso   1.000  C 
  C55      1.0000 0.64470  0.00000  0.70580  Biso   1.000  C 
  N6       1.0000 0.65738  0.00178  0.79578  Biso   1.000  N 
  C56      1.0000 0.70580  0.00000  0.64470  Biso   1.000  C 
  H48      1.0000 0.77510  0.00000  0.66950  Biso   1.000  H 
  C57      1.0000 0.65650  0.00000  0.65650  Biso   1.000  C 
  C58      1.0000 0.61720  0.00000  0.61720  Biso   1.000  C 
  H49      1.0000 0.61140  0.00000  0.71490  Biso   1.000  H 
  H50      1.0000 0.71490  0.00000  0.61140  Biso   1.000  H 
  O43      1.0000 0.57190  0.00000  0.63260  Biso   1.000  O 
  O44      1.0000 0.63260  0.00000  0.57190  Biso   1.000  O 
  C59      1.0000 0.63857  0.04951  0.81185  Biso   1.000  C 
  C60      1.0000 0.62374  0.96099  0.81209  Biso   1.000  C 
  C61      1.0000 0.85700  0.05525  0.69080  Biso   1.000  C 
  C62      1.0000 0.87353  0.96650  0.68425  Biso   1.000  C 
  H51      1.0000 0.64032  0.94171  0.84484  Biso   1.000  H 
  H52      1.0000 0.61608  0.93547  0.78205  Biso   1.000  H 
  C63      1.0000 0.57317  0.98559  0.82611  Biso   1.000  C 
  H53      1.0000 0.65455  0.06115  0.84711  Biso   1.000  H 
  C64      1.0000 0.58103  0.04096  0.81543  Biso   1.000  C 
  H54      1.0000 0.64459  0.08013  0.78377  Biso   1.000  H 
  H55      1.0000 0.56417  0.05056  0.77860  Biso   1.000  H 
  H56      1.0000 0.56424  0.06427  0.84523  Biso   1.000  H 
  H57      1.0000 0.56483  0.97973  0.86662  Biso   1.000  H 
  H58      1.0000 0.53871  0.97137  0.80475  Biso   1.000  H 
  H59      1.0000 0.85162  0.93609  0.66899  Biso   1.000  H 
  H60      1.0000 0.90084  0.95098  0.70957  Biso   1.000  H 
  C65      1.0000 0.90053  0.99318  0.64141  Biso   1.000  C 
  H61      1.0000 0.87729  0.99319  0.60663  Biso   1.000  H 
  H62      1.0000 0.93851  0.97718  0.63219  Biso   1.000  H 
  C66      1.0000 0.90397  0.04885  0.65709  Biso   1.000  C 
  H63      1.0000 0.86418  0.07646  0.72294  Biso   1.000  H 
  H64      1.0000 0.82557  0.07263  0.67087  Biso   1.000  H 
  H65      1.0000 0.90097  0.07492  0.62459  Biso   1.000  H 
  H66      1.0000 0.93821  0.05912  0.67816  Biso   1.000  H 
  O45      1.0000 0.13260  0.00000  0.92810  Biso   1.000  O 
  C67      1.0000 0.11720  0.00000  0.88280  Biso   1.000  C 
  O46      1.0000 0.07190  0.00000  0.86740  Biso   1.000  O 
  C68      1.0000 0.15650  0.00000  0.84350  Biso   1.000  C 
  C69      1.0000 0.20580  0.00000  0.85530  Biso   1.000  C 
  C70      1.0000 0.14470  0.00000  0.79420  Biso   1.000  C 
  C71      1.0000 0.24200  0.00000  0.82050  Biso   1.000  C 
  H67      1.0000 0.21490  0.00000  0.88860  Biso   1.000  H 
  C72      1.0000 0.17950  0.00000  0.75800  Biso   1.000  C 
  H68      1.0000 0.11140  0.00000  0.78510  Biso   1.000  H 
  C73      1.0000 0.23070  0.00000  0.76930  Biso   1.000  C 
  C74      1.0000 0.26930  0.00000  0.73070  Biso   1.000  C 
  H69      1.0000 0.27510  0.00000  0.83050  Biso   1.000  H 
  C75      1.0000 0.32050  0.00000  0.74200  Biso   1.000  C 
  N7       1.0000 0.15798  0.99408  0.70589  Biso   1.000  N 
  C76      1.0000 0.25800  0.00000  0.67950  Biso   1.000  C 
  C77      1.0000 0.35530  0.00000  0.70580  Biso   1.000  C 
  N8       1.0000 0.34262  0.99822  0.79578  Biso   1.000  N 
  C78      1.0000 0.29420  0.00000  0.64470  Biso   1.000  C 
  H70      1.0000 0.22490  0.00000  0.66950  Biso   1.000  H 
  C79      1.0000 0.34350  0.00000  0.65650  Biso   1.000  C 
  C80      1.0000 0.38280  0.00000  0.61720  Biso   1.000  C 
  H71      1.0000 0.38860  0.00000  0.71490  Biso   1.000  H 
  H72      1.0000 0.28510  0.00000  0.61140  Biso   1.000  H 
  O47      1.0000 0.42810  0.00000  0.63260  Biso   1.000  O 
  O48      1.0000 0.36740  0.00000  0.57190  Biso   1.000  O 
  C81      1.0000 0.36143  0.95049  0.81185  Biso   1.000  C 
  C82      1.0000 0.37626  0.03901  0.81209  Biso   1.000  C 
  C83      1.0000 0.14300  0.94475  0.69080  Biso   1.000  C 
  C84      1.0000 0.12647  0.03349  0.68425  Biso   1.000  C 
  H73      1.0000 0.35968  0.05829  0.84484  Biso   1.000  H 
  H74      1.0000 0.38392  0.06453  0.78205  Biso   1.000  H 
  C85      1.0000 0.42683  0.01441  0.82611  Biso   1.000  C 
  H75      1.0000 0.34545  0.93885  0.84711  Biso   1.000  H 
  C86      1.0000 0.41897  0.95904  0.81543  Biso   1.000  C 
  H76      1.0000 0.35541  0.91987  0.78377  Biso   1.000  H 
  H77      1.0000 0.43583  0.94944  0.77860  Biso   1.000  H 
  H78      1.0000 0.43576  0.93573  0.84523  Biso   1.000  H 
  H79      1.0000 0.43517  0.02027  0.86662  Biso   1.000  H 
  H80      1.0000 0.46129  0.02863  0.80475  Biso   1.000  H 
  H81      1.0000 0.14838  0.06391  0.66899  Biso   1.000  H 
  H82      1.0000 0.09916  0.04902  0.70957  Biso   1.000  H 
  C87      1.0000 0.09947  0.00682  0.64141  Biso   1.000  C 
  H83      1.0000 0.12271  0.00681  0.60663  Biso   1.000  H 
  H84      1.0000 0.06149  0.02282  0.63219  Biso   1.000  H 
  C88      1.0000 0.09603  0.95115  0.65709  Biso   1.000  C 
  H85      1.0000 0.13582  0.92354  0.72294  Biso   1.000  H 
  H86      1.0000 0.17443  0.92737  0.67087  Biso   1.000  H 
  H87      1.0000 0.09903  0.92508  0.62459  Biso   1.000  H 
  H88      1.0000 0.06179  0.94088  0.67816  Biso   1.000  H 
  O49      1.0000 0.07190  0.13260  0.00000  Biso   1.000  O 
  C89      1.0000 0.11720  0.11720  0.00000  Biso   1.000  C 
  O50      1.0000 0.13260  0.07190  0.00000  Biso   1.000  O 
  C90      1.0000 0.15650  0.15650  0.00000  Biso   1.000  C 
  C91      1.0000 0.14470  0.20580  0.00000  Biso   1.000  C 
  C92      1.0000 0.20580  0.14470  0.00000  Biso   1.000  C 
  C93      1.0000 0.17950  0.24200  0.00000  Biso   1.000  C 
  H89      1.0000 0.11140  0.21490  0.00000  Biso   1.000  H 
  C94      1.0000 0.24200  0.17950  0.00000  Biso   1.000  C 
  H90      1.0000 0.21490  0.11140  0.00000  Biso   1.000  H 
  C95      1.0000 0.23070  0.23070  0.00000  Biso   1.000  C 
  C96      1.0000 0.26930  0.26930  0.00000  Biso   1.000  C 
  H91      1.0000 0.16950  0.27510  0.00000  Biso   1.000  H 
  C97      1.0000 0.25800  0.32050  0.00000  Biso   1.000  C 
  N9       1.0000 0.29408  0.15820  0.00598  Biso   1.000  N 
  C98      1.0000 0.32050  0.25800  0.00000  Biso   1.000  C 
  C99      1.0000 0.29420  0.35530  0.00000  Biso   1.000  C 
  N10      1.0000 0.20732  0.34103  0.01707  Biso   1.000  N 
  C100     1.0000 0.35530  0.29420  0.00000  Biso   1.000  C 
  H92      1.0000 0.33050  0.22490  0.00000  Biso   1.000  H 
  C101     1.0000 0.34350  0.34350  0.00000  Biso   1.000  C 
  C102     1.0000 0.38280  0.38280  0.00000  Biso   1.000  C 
  H93      1.0000 0.28510  0.38860  0.00000  Biso   1.000  H 
  H94      1.0000 0.38860  0.28510  0.00000  Biso   1.000  H 
  O51      1.0000 0.36740  0.42810  0.00000  Biso   1.000  O 
  O52      1.0000 0.42810  0.36740  0.00000  Biso   1.000  O 
  C103     1.0000 0.19859  0.35375  0.06883  Biso   1.000  C 
  C104     1.0000 0.18540  0.37752  0.98382  Biso   1.000  C 
  C105     1.0000 0.30861  0.14273  0.05519  Biso   1.000  C 
  C106     1.0000 0.31549  0.12717  0.96622  Biso   1.000  C 
  H95      1.0000 0.15429  0.36172  0.96302  Biso   1.000  H 
  H96      1.0000 0.21270  0.39406  0.95981  Biso   1.000  H 
  C107     1.0000 0.16742  0.41938  0.01530  Biso   1.000  C 
  H97      1.0000 0.16585  0.33177  0.07929  Biso   1.000  H 
  C108     1.0000 0.18678  0.40975  0.06738  Biso   1.000  C 
  H98      1.0000 0.23120  0.34838  0.09405  Biso   1.000  H 
  H99      1.0000 0.22203  0.43327  0.07517  Biso   1.000  H 
  H100     1.0000 0.15908  0.42256  0.09391  Biso   1.000  H 
  H101     1.0000 0.12581  0.42135  0.01438  Biso   1.000  H 
  H102     1.0000 0.18303  0.45647  0.00019  Biso   1.000  H 
  H103     1.0000 0.33256  0.15026  0.93736  Biso   1.000  H 
  H104     1.0000 0.28928  0.10228  0.94825  Biso   1.000  H 
  C109     1.0000 0.35523  0.09575  0.99237  Biso   1.000  C 
  H105     1.0000 0.39277  0.11391  0.98963  Biso   1.000  H 
  H106     1.0000 0.35824  0.05617  0.97766  Biso   1.000  H 
  C110     1.0000 0.34200  0.09569  0.04893  Biso   1.000  C 
  H107     1.0000 0.27634  0.13558  0.07614  Biso   1.000  H 
  H108     1.0000 0.32857  0.17387  0.07294  Biso   1.000  H 
  H109     1.0000 0.37593  0.10042  0.07312  Biso   1.000  H 
  H110     1.0000 0.32198  0.06182  0.06259  Biso   1.000  H 
  O53      1.0000 0.07190  0.86740  0.00000  Biso   1.000  O 
  C111     1.0000 0.11720  0.88280  0.00000  Biso   1.000  C 
  O54      1.0000 0.13260  0.92810  0.00000  Biso   1.000  O 
  C112     1.0000 0.15650  0.84350  0.00000  Biso   1.000  C 
  C113     1.0000 0.14470  0.79420  0.00000  Biso   1.000  C 
  C114     1.0000 0.20580  0.85530  0.00000  Biso   1.000  C 
  C115     1.0000 0.17950  0.75800  0.00000  Biso   1.000  C 
  H111     1.0000 0.11140  0.78510  0.00000  Biso   1.000  H 
  C116     1.0000 0.24200  0.82050  0.00000  Biso   1.000  C 
  H112     1.0000 0.21490  0.88860  0.00000  Biso   1.000  H 
  C117     1.0000 0.23070  0.76930  0.00000  Biso   1.000  C 
  C118     1.0000 0.26930  0.73070  0.00000  Biso   1.000  C 
  H113     1.0000 0.16950  0.72490  0.00000  Biso   1.000  H 
  C119     1.0000 0.25800  0.67950  0.00000  Biso   1.000  C 
  N11      1.0000 0.29408  0.84179  0.99403  Biso   1.000  N 
  C120     1.0000 0.32050  0.74200  0.00000  Biso   1.000  C 
  C121     1.0000 0.29420  0.64470  0.00000  Biso   1.000  C 
  N12      1.0000 0.20732  0.65898  0.98293  Biso   1.000  N 
  C122     1.0000 0.35530  0.70580  0.00000  Biso   1.000  C 
  H114     1.0000 0.33050  0.77510  0.00000  Biso   1.000  H 
  C123     1.0000 0.34350  0.65650  0.00000  Biso   1.000  C 
  C124     1.0000 0.38280  0.61720  0.00000  Biso   1.000  C 
  H115     1.0000 0.28510  0.61140  0.00000  Biso   1.000  H 
  H116     1.0000 0.38860  0.71490  0.00000  Biso   1.000  H 
  O55      1.0000 0.36740  0.57190  0.00000  Biso   1.000  O 
  O56      1.0000 0.42810  0.63260  0.00000  Biso   1.000  O 
  C125     1.0000 0.19859  0.64625  0.93117  Biso   1.000  C 
  C126     1.0000 0.18540  0.62248  0.01618  Biso   1.000  C 
  C127     1.0000 0.30861  0.85727  0.94481  Biso   1.000  C 
  C128     1.0000 0.31549  0.87283  0.03378  Biso   1.000  C 
  H117     1.0000 0.15429  0.63828  0.03698  Biso   1.000  H 
  H118     1.0000 0.21270  0.60594  0.04019  Biso   1.000  H 
  C129     1.0000 0.16742  0.58062  0.98470  Biso   1.000  C 
  H119     1.0000 0.16585  0.66823  0.92071  Biso   1.000  H 
  C130     1.0000 0.18678  0.59025  0.93262  Biso   1.000  C 
  H120     1.0000 0.23120  0.65162  0.90595  Biso   1.000  H 
  H121     1.0000 0.22203  0.56673  0.92484  Biso   1.000  H 
  H122     1.0000 0.15908  0.57744  0.90609  Biso   1.000  H 
  H123     1.0000 0.12581  0.57865  0.98563  Biso   1.000  H 
  H124     1.0000 0.18303  0.54353  0.99981  Biso   1.000  H 
  H125     1.0000 0.33256  0.84974  0.06264  Biso   1.000  H 
  H126     1.0000 0.28928  0.89772  0.05175  Biso   1.000  H 
  C131     1.0000 0.35523  0.90425  0.00763  Biso   1.000  C 
  H127     1.0000 0.39277  0.88609  0.01037  Biso   1.000  H 
  H128     1.0000 0.35824  0.94383  0.02234  Biso   1.000  H 
  C132     1.0000 0.34200  0.90431  0.95107  Biso   1.000  C 
  H129     1.0000 0.27634  0.86442  0.92386  Biso   1.000  H 
  H130     1.0000 0.32857  0.82613  0.92706  Biso   1.000  H 
  H131     1.0000 0.37593  0.89958  0.92688  Biso   1.000  H 
  H132     1.0000 0.32198  0.93818  0.93741  Biso   1.000  H 
  O57      1.0000 0.92810  0.86740  0.00000  Biso   1.000  O 
  C133     1.0000 0.88280  0.88280  0.00000  Biso   1.000  C 
  O58      1.0000 0.86740  0.92810  0.00000  Biso   1.000  O 
  C134     1.0000 0.84350  0.84350  0.00000  Biso   1.000  C 
  C135     1.0000 0.85530  0.79420  0.00000  Biso   1.000  C 
  C136     1.0000 0.79420  0.85530  0.00000  Biso   1.000  C 
  C137     1.0000 0.82050  0.75800  0.00000  Biso   1.000  C 
  H133     1.0000 0.88860  0.78510  0.00000  Biso   1.000  H 
  C138     1.0000 0.75800  0.82050  0.00000  Biso   1.000  C 
  H134     1.0000 0.78510  0.88860  0.00000  Biso   1.000  H 
  C139     1.0000 0.76930  0.76930  0.00000  Biso   1.000  C 
  C140     1.0000 0.73070  0.73070  0.00000  Biso   1.000  C 
  H135     1.0000 0.83050  0.72490  0.00000  Biso   1.000  H 
  C141     1.0000 0.74200  0.67950  0.00000  Biso   1.000  C 
  N13      1.0000 0.70592  0.84179  0.00598  Biso   1.000  N 
  C142     1.0000 0.67950  0.74200  0.00000  Biso   1.000  C 
  C143     1.0000 0.70580  0.64470  0.00000  Biso   1.000  C 
  N14      1.0000 0.79268  0.65898  0.01707  Biso   1.000  N 
  C144     1.0000 0.64470  0.70580  0.00000  Biso   1.000  C 
  H136     1.0000 0.66950  0.77510  0.00000  Biso   1.000  H 
  C145     1.0000 0.65650  0.65650  0.00000  Biso   1.000  C 
  C146     1.0000 0.61720  0.61720  0.00000  Biso   1.000  C 
  H137     1.0000 0.71490  0.61140  0.00000  Biso   1.000  H 
  H138     1.0000 0.61140  0.71490  0.00000  Biso   1.000  H 
  O59      1.0000 0.63260  0.57190  0.00000  Biso   1.000  O 
  O60      1.0000 0.57190  0.63260  0.00000  Biso   1.000  O 
  C147     1.0000 0.80141  0.64625  0.06883  Biso   1.000  C 
  C148     1.0000 0.81460  0.62248  0.98382  Biso   1.000  C 
  C149     1.0000 0.69139  0.85727  0.05519  Biso   1.000  C 
  C150     1.0000 0.68451  0.87283  0.96622  Biso   1.000  C 
  H139     1.0000 0.84571  0.63828  0.96302  Biso   1.000  H 
  H140     1.0000 0.78730  0.60594  0.95981  Biso   1.000  H 
  C151     1.0000 0.83258  0.58062  0.01530  Biso   1.000  C 
  H141     1.0000 0.83415  0.66823  0.07929  Biso   1.000  H 
  C152     1.0000 0.81322  0.59025  0.06738  Biso   1.000  C 
  H142     1.0000 0.76880  0.65162  0.09405  Biso   1.000  H 
  H143     1.0000 0.77797  0.56673  0.07517  Biso   1.000  H 
  H144     1.0000 0.84092  0.57744  0.09391  Biso   1.000  H 
  H145     1.0000 0.87419  0.57865  0.01438  Biso   1.000  H 
  H146     1.0000 0.81697  0.54353  0.00019  Biso   1.000  H 
  H147     1.0000 0.66744  0.84974  0.93736  Biso   1.000  H 
  H148     1.0000 0.71072  0.89772  0.94825  Biso   1.000  H 
  C153     1.0000 0.64477  0.90425  0.99237  Biso   1.000  C 
  H149     1.0000 0.60723  0.88609  0.98963  Biso   1.000  H 
  H150     1.0000 0.64176  0.94383  0.97766  Biso   1.000  H 
  C154     1.0000 0.65800  0.90431  0.04893  Biso   1.000  C 
  H151     1.0000 0.72366  0.86442  0.07614  Biso   1.000  H 
  H152     1.0000 0.67143  0.82613  0.07294  Biso   1.000  H 
  H153     1.0000 0.62407  0.89958  0.07312  Biso   1.000  H 
  H154     1.0000 0.67802  0.93818  0.06259  Biso   1.000  H 
  O61      1.0000 0.92810  0.13260  0.00000  Biso   1.000  O 
  C155     1.0000 0.88280  0.11720  0.00000  Biso   1.000  C 
  O62      1.0000 0.86740  0.07190  0.00000  Biso   1.000  O 
  C156     1.0000 0.84350  0.15650  0.00000  Biso   1.000  C 
  C157     1.0000 0.85530  0.20580  0.00000  Biso   1.000  C 
  C158     1.0000 0.79420  0.14470  0.00000  Biso   1.000  C 
  C159     1.0000 0.82050  0.24200  0.00000  Biso   1.000  C 
  H155     1.0000 0.88860  0.21490  0.00000  Biso   1.000  H 
  C160     1.0000 0.75800  0.17950  0.00000  Biso   1.000  C 
  H156     1.0000 0.78510  0.11140  0.00000  Biso   1.000  H 
  C161     1.0000 0.76930  0.23070  0.00000  Biso   1.000  C 
  C162     1.0000 0.73070  0.26930  0.00000  Biso   1.000  C 
  H157     1.0000 0.83050  0.27510  0.00000  Biso   1.000  H 
  C163     1.0000 0.74200  0.32050  0.00000  Biso   1.000  C 
  N15      1.0000 0.70592  0.15820  0.99403  Biso   1.000  N 
  C164     1.0000 0.67950  0.25800  0.00000  Biso   1.000  C 
  C165     1.0000 0.70580  0.35530  0.00000  Biso   1.000  C 
  N16      1.0000 0.79268  0.34103  0.98293  Biso   1.000  N 
  C166     1.0000 0.64470  0.29420  0.00000  Biso   1.000  C 
  H158     1.0000 0.66950  0.22490  0.00000  Biso   1.000  H 
  C167     1.0000 0.65650  0.34350  0.00000  Biso   1.000  C 
  C168     1.0000 0.61720  0.38280  0.00000  Biso   1.000  C 
  H159     1.0000 0.71490  0.38860  0.00000  Biso   1.000  H 
  H160     1.0000 0.61140  0.28510  0.00000  Biso   1.000  H 
  O63      1.0000 0.63260  0.42810  0.00000  Biso   1.000  O 
  O64      1.0000 0.57190  0.36740  0.00000  Biso   1.000  O 
  C169     1.0000 0.80141  0.35375  0.93117  Biso   1.000  C 
  C170     1.0000 0.81460  0.37752  0.01618  Biso   1.000  C 
  C171     1.0000 0.69139  0.14273  0.94481  Biso   1.000  C 
  C172     1.0000 0.68451  0.12717  0.03378  Biso   1.000  C 
  H161     1.0000 0.84571  0.36172  0.03698  Biso   1.000  H 
  H162     1.0000 0.78730  0.39406  0.04019  Biso   1.000  H 
  C173     1.0000 0.83258  0.41938  0.98470  Biso   1.000  C 
  H163     1.0000 0.83415  0.33177  0.92071  Biso   1.000  H 
  C174     1.0000 0.81322  0.40975  0.93262  Biso   1.000  C 
  H164     1.0000 0.76880  0.34838  0.90595  Biso   1.000  H 
  H165     1.0000 0.77797  0.43327  0.92484  Biso   1.000  H 
  H166     1.0000 0.84092  0.42256  0.90609  Biso   1.000  H 
  H167     1.0000 0.87419  0.42135  0.98563  Biso   1.000  H 
  H168     1.0000 0.81697  0.45647  0.99981  Biso   1.000  H 
  H169     1.0000 0.66744  0.15026  0.06264  Biso   1.000  H 
  H170     1.0000 0.71072  0.10228  0.05175  Biso   1.000  H 
  C175     1.0000 0.64477  0.09575  0.00763  Biso   1.000  C 
  H171     1.0000 0.60723  0.11391  0.01037  Biso   1.000  H 
  H172     1.0000 0.64176  0.05617  0.02234  Biso   1.000  H 
  C176     1.0000 0.65800  0.09569  0.95107  Biso   1.000  C 
  H173     1.0000 0.72366  0.13558  0.92386  Biso   1.000  H 
  H174     1.0000 0.67143  0.17387  0.92706  Biso   1.000  H 
  H175     1.0000 0.62407  0.10042  0.92688  Biso   1.000  H 
  H176     1.0000 0.67802  0.06182  0.93741  Biso   1.000  H 
  O65      1.0000 0.00000  0.07190  0.13260  Biso   1.000  O 
  C177     1.0000 0.00000  0.11720  0.11720  Biso   1.000  C 
  O66      1.0000 0.00000  0.13260  0.07190  Biso   1.000  O 
  C178     1.0000 0.00000  0.15650  0.15650  Biso   1.000  C 
  C179     1.0000 0.00000  0.14470  0.20580  Biso   1.000  C 
  C180     1.0000 0.00000  0.20580  0.14470  Biso   1.000  C 
  C181     1.0000 0.00000  0.17950  0.24200  Biso   1.000  C 
  H177     1.0000 0.00000  0.11140  0.21490  Biso   1.000  H 
  C182     1.0000 0.00000  0.24200  0.17950  Biso   1.000  C 
  H178     1.0000 0.00000  0.21490  0.11140  Biso   1.000  H 
  C183     1.0000 0.00000  0.23070  0.23070  Biso   1.000  C 
  C184     1.0000 0.00000  0.26930  0.26930  Biso   1.000  C 
  H179     1.0000 0.00000  0.16950  0.27510  Biso   1.000  H 
  C185     1.0000 0.00000  0.25800  0.32050  Biso   1.000  C 
  N17      1.0000 0.98138  0.29296  0.15853  Biso   1.000  N 
  C186     1.0000 0.00000  0.32050  0.25800  Biso   1.000  C 
  C187     1.0000 0.00000  0.29420  0.35530  Biso   1.000  C 
  N18      1.0000 0.00038  0.20424  0.34269  Biso   1.000  N 
  C188     1.0000 0.00000  0.35530  0.29420  Biso   1.000  C 
  H180     1.0000 0.00000  0.33050  0.22490  Biso   1.000  H 
  C189     1.0000 0.00000  0.34350  0.34350  Biso   1.000  C 
  C190     1.0000 0.00000  0.38280  0.38280  Biso   1.000  C 
  H181     1.0000 0.00000  0.28510  0.38860  Biso   1.000  H 
  H182     1.0000 0.00000  0.38860  0.28510  Biso   1.000  H 
  O67      1.0000 0.00000  0.36740  0.42810  Biso   1.000  O 
  O68      1.0000 0.00000  0.42810  0.36740  Biso   1.000  O 
  C191     1.0000 0.04750  0.18713  0.36219  Biso   1.000  C 
  C192     1.0000 0.95878  0.18887  0.37578  Biso   1.000  C 
  C193     1.0000 0.01326  0.32410  0.12621  Biso   1.000  C 
  C194     1.0000 0.92825  0.30150  0.15094  Biso   1.000  C 
  H183     1.0000 0.93863  0.15690  0.35873  Biso   1.000  H 
  H184     1.0000 0.93421  0.21962  0.38350  Biso   1.000  H 
  C195     1.0000 0.98229  0.17372  0.42646  Biso   1.000  C 
  H185     1.0000 0.05908  0.15188  0.34613  Biso   1.000  H 
  C196     1.0000 0.03813  0.18339  0.41955  Biso   1.000  C 
  H186     1.0000 0.07852  0.21493  0.35699  Biso   1.000  H 
  H187     1.0000 0.04827  0.21988  0.43656  Biso   1.000  H 
  H188     1.0000 0.06072  0.15307  0.43634  Biso   1.000  H 
  H189     1.0000 0.97573  0.13316  0.43447  Biso   1.000  H 
  H190     1.0000 0.96804  0.19493  0.46088  Biso   1.000  H 
  H191     1.0000 0.91574  0.32912  0.17883  Biso   1.000  H 
  H192     1.0000 0.90518  0.26786  0.15432  Biso   1.000  H 
  C197     1.0000 0.92528  0.32654  0.09888  Biso   1.000  C 
  H193     1.0000 0.90345  0.36267  0.10177  Biso   1.000  H 
  H194     1.0000 0.90647  0.30187  0.07166  Biso   1.000  H 
  C198     1.0000 0.97989  0.33630  0.08154  Biso   1.000  C 
  H195     1.0000 0.04713  0.30425  0.11475  Biso   1.000  H 
  H196     1.0000 0.02627  0.35938  0.14437  Biso   1.000  H 
  H197     1.0000 0.98469  0.37489  0.06632  Biso   1.000  H 
  H198     1.0000 0.99137  0.30870  0.05189  Biso   1.000  H 
  O69      1.0000 0.00000  0.07190  0.86740  Biso   1.000  O 
  C199     1.0000 0.00000  0.11720  0.88280  Biso   1.000  C 
  O70      1.0000 0.00000  0.13260  0.92810  Biso   1.000  O 
  C200     1.0000 0.00000  0.15650  0.84350  Biso   1.000  C 
  C201     1.0000 0.00000  0.14470  0.79420  Biso   1.000  C 
  C202     1.0000 0.00000  0.20580  0.85530  Biso   1.000  C 
  C203     1.0000 0.00000  0.17950  0.75800  Biso   1.000  C 
  H199     1.0000 0.00000  0.11140  0.78510  Biso   1.000  H 
  C204     1.0000 0.00000  0.24200  0.82050  Biso   1.000  C 
  H200     1.0000 0.00000  0.21490  0.88860  Biso   1.000  H 
  C205     1.0000 0.00000  0.23070  0.76930  Biso   1.000  C 
  C206     1.0000 0.00000  0.26930  0.73070  Biso   1.000  C 
  H201     1.0000 0.00000  0.16950  0.72490  Biso   1.000  H 
  C207     1.0000 0.00000  0.25800  0.67950  Biso   1.000  C 
  N19      1.0000 0.01862  0.29296  0.84147  Biso   1.000  N 
  C208     1.0000 0.00000  0.32050  0.74200  Biso   1.000  C 
  C209     1.0000 0.00000  0.29420  0.64470  Biso   1.000  C 
  N20      1.0000 0.99962  0.20424  0.65731  Biso   1.000  N 
  C210     1.0000 0.00000  0.35530  0.70580  Biso   1.000  C 
  H202     1.0000 0.00000  0.33050  0.77510  Biso   1.000  H 
  C211     1.0000 0.00000  0.34350  0.65650  Biso   1.000  C 
  C212     1.0000 0.00000  0.38280  0.61720  Biso   1.000  C 
  H203     1.0000 0.00000  0.28510  0.61140  Biso   1.000  H 
  H204     1.0000 0.00000  0.38860  0.71490  Biso   1.000  H 
  O71      1.0000 0.00000  0.36740  0.57190  Biso   1.000  O 
  O72      1.0000 0.00000  0.42810  0.63260  Biso   1.000  O 
  C213     1.0000 0.95250  0.18713  0.63781  Biso   1.000  C 
  C214     1.0000 0.04122  0.18887  0.62422  Biso   1.000  C 
  C215     1.0000 0.98674  0.32410  0.87379  Biso   1.000  C 
  C216     1.0000 0.07175  0.30150  0.84906  Biso   1.000  C 
  H205     1.0000 0.06137  0.15690  0.64127  Biso   1.000  H 
  H206     1.0000 0.06579  0.21962  0.61650  Biso   1.000  H 
  C217     1.0000 0.01771  0.17372  0.57354  Biso   1.000  C 
  H207     1.0000 0.94092  0.15188  0.65387  Biso   1.000  H 
  C218     1.0000 0.96187  0.18339  0.58045  Biso   1.000  C 
  H208     1.0000 0.92148  0.21493  0.64301  Biso   1.000  H 
  H209     1.0000 0.95173  0.21988  0.56344  Biso   1.000  H 
  H210     1.0000 0.93928  0.15307  0.56366  Biso   1.000  H 
  H211     1.0000 0.02427  0.13316  0.56553  Biso   1.000  H 
  H212     1.0000 0.03196  0.19493  0.53912  Biso   1.000  H 
  H213     1.0000 0.08426  0.32912  0.82117  Biso   1.000  H 
  H214     1.0000 0.09482  0.26786  0.84568  Biso   1.000  H 
  C219     1.0000 0.07472  0.32654  0.90112  Biso   1.000  C 
  H215     1.0000 0.09654  0.36267  0.89823  Biso   1.000  H 
  H216     1.0000 0.09353  0.30187  0.92834  Biso   1.000  H 
  C220     1.0000 0.02011  0.33630  0.91846  Biso   1.000  C 
  H217     1.0000 0.95287  0.30425  0.88525  Biso   1.000  H 
  H218     1.0000 0.97373  0.35938  0.85563  Biso   1.000  H 
  H219     1.0000 0.01531  0.37489  0.93368  Biso   1.000  H 
  H220     1.0000 0.00863  0.30870  0.94811  Biso   1.000  H 
  O73      1.0000 0.00000  0.92810  0.86740  Biso   1.000  O 
  C221     1.0000 0.00000  0.88280  0.88280  Biso   1.000  C 
  O74      1.0000 0.00000  0.86740  0.92810  Biso   1.000  O 
  C222     1.0000 0.00000  0.84350  0.84350  Biso   1.000  C 
  C223     1.0000 0.00000  0.85530  0.79420  Biso   1.000  C 
  C224     1.0000 0.00000  0.79420  0.85530  Biso   1.000  C 
  C225     1.0000 0.00000  0.82050  0.75800  Biso   1.000  C 
  H221     1.0000 0.00000  0.88860  0.78510  Biso   1.000  H 
  C226     1.0000 0.00000  0.75800  0.82050  Biso   1.000  C 
  H222     1.0000 0.00000  0.78510  0.88860  Biso   1.000  H 
  C227     1.0000 0.00000  0.76930  0.76930  Biso   1.000  C 
  C228     1.0000 0.00000  0.73070  0.73070  Biso   1.000  C 
  H223     1.0000 0.00000  0.83050  0.72490  Biso   1.000  H 
  C229     1.0000 0.00000  0.74200  0.67950  Biso   1.000  C 
  N21      1.0000 0.98138  0.70705  0.84147  Biso   1.000  N 
  C230     1.0000 0.00000  0.67950  0.74200  Biso   1.000  C 
  C231     1.0000 0.00000  0.70580  0.64470  Biso   1.000  C 
  N22      1.0000 0.00038  0.79576  0.65731  Biso   1.000  N 
  C232     1.0000 0.00000  0.64470  0.70580  Biso   1.000  C 
  H224     1.0000 0.00000  0.66950  0.77510  Biso   1.000  H 
  C233     1.0000 0.00000  0.65650  0.65650  Biso   1.000  C 
  C234     1.0000 0.00000  0.61720  0.61720  Biso   1.000  C 
  H225     1.0000 0.00000  0.71490  0.61140  Biso   1.000  H 
  H226     1.0000 0.00000  0.61140  0.71490  Biso   1.000  H 
  O75      1.0000 0.00000  0.63260  0.57190  Biso   1.000  O 
  O76      1.0000 0.00000  0.57190  0.63260  Biso   1.000  O 
  C235     1.0000 0.04750  0.81288  0.63781  Biso   1.000  C 
  C236     1.0000 0.95878  0.81114  0.62422  Biso   1.000  C 
  C237     1.0000 0.01326  0.67590  0.87379  Biso   1.000  C 
  C238     1.0000 0.92825  0.69851  0.84906  Biso   1.000  C 
  H227     1.0000 0.93863  0.84310  0.64127  Biso   1.000  H 
  H228     1.0000 0.93421  0.78038  0.61650  Biso   1.000  H 
  C239     1.0000 0.98229  0.82628  0.57354  Biso   1.000  C 
  H229     1.0000 0.05908  0.84812  0.65387  Biso   1.000  H 
  C240     1.0000 0.03813  0.81661  0.58045  Biso   1.000  C 
  H230     1.0000 0.07852  0.78507  0.64301  Biso   1.000  H 
  H231     1.0000 0.04827  0.78012  0.56344  Biso   1.000  H 
  H232     1.0000 0.06072  0.84693  0.56366  Biso   1.000  H 
  H233     1.0000 0.97573  0.86684  0.56553  Biso   1.000  H 
  H234     1.0000 0.96804  0.80508  0.53912  Biso   1.000  H 
  H235     1.0000 0.91574  0.67088  0.82117  Biso   1.000  H 
  H236     1.0000 0.90518  0.73214  0.84568  Biso   1.000  H 
  C241     1.0000 0.92528  0.67346  0.90112  Biso   1.000  C 
  H237     1.0000 0.90345  0.63733  0.89823  Biso   1.000  H 
  H238     1.0000 0.90647  0.69813  0.92834  Biso   1.000  H 
  C242     1.0000 0.97989  0.66370  0.91846  Biso   1.000  C 
  H239     1.0000 0.04713  0.69575  0.88525  Biso   1.000  H 
  H240     1.0000 0.02627  0.64062  0.85563  Biso   1.000  H 
  H241     1.0000 0.98469  0.62511  0.93368  Biso   1.000  H 
  H242     1.0000 0.99137  0.69130  0.94811  Biso   1.000  H 
  O77      1.0000 0.00000  0.92810  0.13260  Biso   1.000  O 
  C243     1.0000 0.00000  0.88280  0.11720  Biso   1.000  C 
  O78      1.0000 0.00000  0.86740  0.07190  Biso   1.000  O 
  C244     1.0000 0.00000  0.84350  0.15650  Biso   1.000  C 
  C245     1.0000 0.00000  0.85530  0.20580  Biso   1.000  C 
  C246     1.0000 0.00000  0.79420  0.14470  Biso   1.000  C 
  C247     1.0000 0.00000  0.82050  0.24200  Biso   1.000  C 
  H243     1.0000 0.00000  0.88860  0.21490  Biso   1.000  H 
  C248     1.0000 0.00000  0.75800  0.17950  Biso   1.000  C 
  H244     1.0000 0.00000  0.78510  0.11140  Biso   1.000  H 
  C249     1.0000 0.00000  0.76930  0.23070  Biso   1.000  C 
  C250     1.0000 0.00000  0.73070  0.26930  Biso   1.000  C 
  H245     1.0000 0.00000  0.83050  0.27510  Biso   1.000  H 
  C251     1.0000 0.00000  0.74200  0.32050  Biso   1.000  C 
  N23      1.0000 0.01862  0.70705  0.15853  Biso   1.000  N 
  C252     1.0000 0.00000  0.67950  0.25800  Biso   1.000  C 
  C253     1.0000 0.00000  0.70580  0.35530  Biso   1.000  C 
  N24      1.0000 0.99962  0.79576  0.34269  Biso   1.000  N 
  C254     1.0000 0.00000  0.64470  0.29420  Biso   1.000  C 
  H246     1.0000 0.00000  0.66950  0.22490  Biso   1.000  H 
  C255     1.0000 0.00000  0.65650  0.34350  Biso   1.000  C 
  C256     1.0000 0.00000  0.61720  0.38280  Biso   1.000  C 
  H247     1.0000 0.00000  0.71490  0.38860  Biso   1.000  H 
  H248     1.0000 0.00000  0.61140  0.28510  Biso   1.000  H 
  O79      1.0000 0.00000  0.63260  0.42810  Biso   1.000  O 
  O80      1.0000 0.00000  0.57190  0.36740  Biso   1.000  O 
  C257     1.0000 0.95250  0.81288  0.36219  Biso   1.000  C 
  C258     1.0000 0.04122  0.81114  0.37578  Biso   1.000  C 
  C259     1.0000 0.98674  0.67590  0.12621  Biso   1.000  C 
  C260     1.0000 0.07175  0.69851  0.15094  Biso   1.000  C 
  H249     1.0000 0.06137  0.84310  0.35873  Biso   1.000  H 
  H250     1.0000 0.06579  0.78038  0.38350  Biso   1.000  H 
  C261     1.0000 0.01771  0.82628  0.42646  Biso   1.000  C 
  H251     1.0000 0.94092  0.84812  0.34613  Biso   1.000  H 
  C262     1.0000 0.96187  0.81661  0.41955  Biso   1.000  C 
  H252     1.0000 0.92148  0.78507  0.35699  Biso   1.000  H 
  H253     1.0000 0.95173  0.78012  0.43656  Biso   1.000  H 
  H254     1.0000 0.93928  0.84693  0.43634  Biso   1.000  H 
  H255     1.0000 0.02427  0.86684  0.43447  Biso   1.000  H 
  H256     1.0000 0.03196  0.80508  0.46088  Biso   1.000  H 
  H257     1.0000 0.08426  0.67088  0.17883  Biso   1.000  H 
  H258     1.0000 0.09482  0.73214  0.15432  Biso   1.000  H 
  C263     1.0000 0.07472  0.67346  0.09888  Biso   1.000  C 
  H259     1.0000 0.09654  0.63733  0.10177  Biso   1.000  H 
  H260     1.0000 0.09353  0.69813  0.07166  Biso   1.000  H 
  C264     1.0000 0.02011  0.66370  0.08154  Biso   1.000  C 
  H261     1.0000 0.95287  0.69575  0.11475  Biso   1.000  H 
  H262     1.0000 0.97373  0.64062  0.14437  Biso   1.000  H 
  H263     1.0000 0.01531  0.62511  0.06632  Biso   1.000  H 
  H264     1.0000 0.00863  0.69130  0.05189  Biso   1.000  H 
  O81      1.0000 0.13260  0.50000  0.57190  Biso   1.000  O 
  C265     1.0000 0.11720  0.50000  0.61720  Biso   1.000  C 
  O82      1.0000 0.07190  0.50000  0.63260  Biso   1.000  O 
  C266     1.0000 0.15650  0.50000  0.65650  Biso   1.000  C 
  C267     1.0000 0.20580  0.50000  0.64470  Biso   1.000  C 
  C268     1.0000 0.14470  0.50000  0.70580  Biso   1.000  C 
  C269     1.0000 0.24200  0.50000  0.67950  Biso   1.000  C 
  H265     1.0000 0.21490  0.50000  0.61140  Biso   1.000  H 
  C270     1.0000 0.17950  0.50000  0.74200  Biso   1.000  C 
  H266     1.0000 0.11140  0.50000  0.71490  Biso   1.000  H 
  C271     1.0000 0.23070  0.50000  0.73070  Biso   1.000  C 
  C272     1.0000 0.26930  0.50000  0.76930  Biso   1.000  C 
  H267     1.0000 0.27510  0.50000  0.66950  Biso   1.000  H 
  C273     1.0000 0.32050  0.50000  0.75800  Biso   1.000  C 
  N25      1.0000 0.15841  0.50822  0.79460  Biso   1.000  N 
  C274     1.0000 0.25800  0.50000  0.82050  Biso   1.000  C 
  C275     1.0000 0.35530  0.50000  0.79420  Biso   1.000  C 
  N26      1.0000 0.34109  0.51709  0.70737  Biso   1.000  N 
  C276     1.0000 0.29420  0.50000  0.85530  Biso   1.000  C 
  H268     1.0000 0.22490  0.50000  0.83050  Biso   1.000  H 
  C277     1.0000 0.34350  0.50000  0.84350  Biso   1.000  C 
  C278     1.0000 0.38280  0.50000  0.88280  Biso   1.000  C 
  H269     1.0000 0.38860  0.50000  0.78510  Biso   1.000  H 
  H270     1.0000 0.28510  0.50000  0.88860  Biso   1.000  H 
  O83      1.0000 0.42810  0.50000  0.86740  Biso   1.000  O 
  O84      1.0000 0.36740  0.50000  0.92810  Biso   1.000  O 
  C279     1.0000 0.35361  0.56897  0.69861  Biso   1.000  C 
  C280     1.0000 0.37760  0.48399  0.68556  Biso   1.000  C 
  C281     1.0000 0.13016  0.55376  0.80246  Biso   1.000  C 
  C282     1.0000 0.13744  0.46533  0.82169  Biso   1.000  C 
  H271     1.0000 0.36096  0.46137  0.65653  Biso   1.000  H 
  H272     1.0000 0.39593  0.46179  0.71321  Biso   1.000  H 
  C283     1.0000 0.41785  0.51541  0.66499  Biso   1.000  C 
  H273     1.0000 0.33104  0.57997  0.66670  Biso   1.000  H 
  C284     1.0000 0.40917  0.56730  0.68527  Biso   1.000  C 
  H274     1.0000 0.34889  0.59392  0.73150  Biso   1.000  H 
  H275     1.0000 0.43378  0.57475  0.71971  Biso   1.000  H 
  H276     1.0000 0.42095  0.59471  0.65761  Biso   1.000  H 
  H277     1.0000 0.41659  0.51487  0.62321  Biso   1.000  H 
  H278     1.0000 0.45586  0.49958  0.67756  Biso   1.000  H 
  H279     1.0000 0.16117  0.45436  0.85078  Biso   1.000  H 
  H280     1.0000 0.12863  0.43229  0.79717  Biso   1.000  H 
  C285     1.0000 0.08913  0.48387  0.84650  Biso   1.000  C 
  H281     1.0000 0.08611  0.47172  0.88617  Biso   1.000  H 
  H282     1.0000 0.05879  0.46752  0.82482  Biso   1.000  H 
  C286     1.0000 0.08464  0.53908  0.83718  Biso   1.000  C 
  H283     1.0000 0.11475  0.56659  0.76762  Biso   1.000  H 
  H284     1.0000 0.15615  0.58146  0.81766  Biso   1.000  H 
  H285     1.0000 0.08569  0.56108  0.87311  Biso   1.000  H 
  H286     1.0000 0.04903  0.54901  0.81960  Biso   1.000  H 
  O85      1.0000 0.86740  0.50000  0.57190  Biso   1.000  O 
  C287     1.0000 0.88280  0.50000  0.61720  Biso   1.000  C 
  O86      1.0000 0.92810  0.50000  0.63260  Biso   1.000  O 
  C288     1.0000 0.84350  0.50000  0.65650  Biso   1.000  C 
  C289     1.0000 0.79420  0.50000  0.64470  Biso   1.000  C 
  C290     1.0000 0.85530  0.50000  0.70580  Biso   1.000  C 
  C291     1.0000 0.75800  0.50000  0.67950  Biso   1.000  C 
  H287     1.0000 0.78510  0.50000  0.61140  Biso   1.000  H 
  C292     1.0000 0.82050  0.50000  0.74200  Biso   1.000  C 
  H288     1.0000 0.88860  0.50000  0.71490  Biso   1.000  H 
  C293     1.0000 0.76930  0.50000  0.73070  Biso   1.000  C 
  C294     1.0000 0.73070  0.50000  0.76930  Biso   1.000  C 
  H289     1.0000 0.72490  0.50000  0.66950  Biso   1.000  H 
  C295     1.0000 0.67950  0.50000  0.75800  Biso   1.000  C 
  N27      1.0000 0.84159  0.49178  0.79460  Biso   1.000  N 
  C296     1.0000 0.74200  0.50000  0.82050  Biso   1.000  C 
  C297     1.0000 0.64470  0.50000  0.79420  Biso   1.000  C 
  N28      1.0000 0.65892  0.48291  0.70737  Biso   1.000  N 
  C298     1.0000 0.70580  0.50000  0.85530  Biso   1.000  C 
  H290     1.0000 0.77510  0.50000  0.83050  Biso   1.000  H 
  C299     1.0000 0.65650  0.50000  0.84350  Biso   1.000  C 
  C300     1.0000 0.61720  0.50000  0.88280  Biso   1.000  C 
  H291     1.0000 0.61140  0.50000  0.78510  Biso   1.000  H 
  H292     1.0000 0.71490  0.50000  0.88860  Biso   1.000  H 
  O87      1.0000 0.57190  0.50000  0.86740  Biso   1.000  O 
  O88      1.0000 0.63260  0.50000  0.92810  Biso   1.000  O 
  C301     1.0000 0.64639  0.43103  0.69861  Biso   1.000  C 
  C302     1.0000 0.62240  0.51601  0.68556  Biso   1.000  C 
  C303     1.0000 0.86984  0.44624  0.80246  Biso   1.000  C 
  C304     1.0000 0.86256  0.53467  0.82169  Biso   1.000  C 
  H293     1.0000 0.63904  0.53863  0.65653  Biso   1.000  H 
  H294     1.0000 0.60407  0.53821  0.71321  Biso   1.000  H 
  C305     1.0000 0.58215  0.48459  0.66499  Biso   1.000  C 
  H295     1.0000 0.66896  0.42003  0.66670  Biso   1.000  H 
  C306     1.0000 0.59083  0.43270  0.68527  Biso   1.000  C 
  H296     1.0000 0.65112  0.40608  0.73150  Biso   1.000  H 
  H297     1.0000 0.56622  0.42525  0.71971  Biso   1.000  H 
  H298     1.0000 0.57905  0.40529  0.65761  Biso   1.000  H 
  H299     1.0000 0.58341  0.48513  0.62321  Biso   1.000  H 
  H300     1.0000 0.54414  0.50042  0.67756  Biso   1.000  H 
  H301     1.0000 0.83883  0.54564  0.85078  Biso   1.000  H 
  H302     1.0000 0.87137  0.56771  0.79717  Biso   1.000  H 
  C307     1.0000 0.91087  0.51613  0.84650  Biso   1.000  C 
  H303     1.0000 0.91389  0.52828  0.88617  Biso   1.000  H 
  H304     1.0000 0.94121  0.53248  0.82482  Biso   1.000  H 
  C308     1.0000 0.91536  0.46092  0.83718  Biso   1.000  C 
  H305     1.0000 0.88525  0.43341  0.76762  Biso   1.000  H 
  H306     1.0000 0.84385  0.41854  0.81766  Biso   1.000  H 
  H307     1.0000 0.91431  0.43892  0.87311  Biso   1.000  H 
  H308     1.0000 0.95097  0.45099  0.81960  Biso   1.000  H 
  O89      1.0000 0.86740  0.50000  0.42810  Biso   1.000  O 
  C309     1.0000 0.88280  0.50000  0.38280  Biso   1.000  C 
  O90      1.0000 0.92810  0.50000  0.36740  Biso   1.000  O 
  C310     1.0000 0.84350  0.50000  0.34350  Biso   1.000  C 
  C311     1.0000 0.79420  0.50000  0.35530  Biso   1.000  C 
  C312     1.0000 0.85530  0.50000  0.29420  Biso   1.000  C 
  C313     1.0000 0.75800  0.50000  0.32050  Biso   1.000  C 
  H309     1.0000 0.78510  0.50000  0.38860  Biso   1.000  H 
  C314     1.0000 0.82050  0.50000  0.25800  Biso   1.000  C 
  H310     1.0000 0.88860  0.50000  0.28510  Biso   1.000  H 
  C315     1.0000 0.76930  0.50000  0.26930  Biso   1.000  C 
  C316     1.0000 0.73070  0.50000  0.23070  Biso   1.000  C 
  H311     1.0000 0.72490  0.50000  0.33050  Biso   1.000  H 
  C317     1.0000 0.67950  0.50000  0.24200  Biso   1.000  C 
  N29      1.0000 0.84159  0.50822  0.20540  Biso   1.000  N 
  C318     1.0000 0.74200  0.50000  0.17950  Biso   1.000  C 
  C319     1.0000 0.64470  0.50000  0.20580  Biso   1.000  C 
  N30      1.0000 0.65892  0.51709  0.29263  Biso   1.000  N 
  C320     1.0000 0.70580  0.50000  0.14470  Biso   1.000  C 
  H312     1.0000 0.77510  0.50000  0.16950  Biso   1.000  H 
  C321     1.0000 0.65650  0.50000  0.15650  Biso   1.000  C 
  C322     1.0000 0.61720  0.50000  0.11720  Biso   1.000  C 
  H313     1.0000 0.61140  0.50000  0.21490  Biso   1.000  H 
  H314     1.0000 0.71490  0.50000  0.11140  Biso   1.000  H 
  O91      1.0000 0.57190  0.50000  0.13260  Biso   1.000  O 
  O92      1.0000 0.63260  0.50000  0.07190  Biso   1.000  O 
  C323     1.0000 0.64639  0.56897  0.30139  Biso   1.000  C 
  C324     1.0000 0.62240  0.48399  0.31445  Biso   1.000  C 
  C325     1.0000 0.86984  0.55376  0.19754  Biso   1.000  C 
  C326     1.0000 0.86256  0.46533  0.17831  Biso   1.000  C 
  H315     1.0000 0.63904  0.46137  0.34347  Biso   1.000  H 
  H316     1.0000 0.60407  0.46179  0.28679  Biso   1.000  H 
  C327     1.0000 0.58215  0.51541  0.33501  Biso   1.000  C 
  H317     1.0000 0.66896  0.57997  0.33330  Biso   1.000  H 
  C328     1.0000 0.59083  0.56730  0.31473  Biso   1.000  C 
  H318     1.0000 0.65112  0.59392  0.26850  Biso   1.000  H 
  H319     1.0000 0.56622  0.57475  0.28029  Biso   1.000  H 
  H320     1.0000 0.57905  0.59471  0.34239  Biso   1.000  H 
  H321     1.0000 0.58341  0.51487  0.37679  Biso   1.000  H 
  H322     1.0000 0.54414  0.49958  0.32244  Biso   1.000  H 
  H323     1.0000 0.83883  0.45436  0.14922  Biso   1.000  H 
  H324     1.0000 0.87137  0.43229  0.20282  Biso   1.000  H 
  C329     1.0000 0.91087  0.48387  0.15350  Biso   1.000  C 
  H325     1.0000 0.91389  0.47172  0.11383  Biso   1.000  H 
  H326     1.0000 0.94121  0.46752  0.17518  Biso   1.000  H 
  C330     1.0000 0.91536  0.53908  0.16282  Biso   1.000  C 
  H327     1.0000 0.88525  0.56659  0.23238  Biso   1.000  H 
  H328     1.0000 0.84385  0.58146  0.18233  Biso   1.000  H 
  H329     1.0000 0.91431  0.56108  0.12689  Biso   1.000  H 
  H330     1.0000 0.95097  0.54901  0.18040  Biso   1.000  H 
  O93      1.0000 0.13260  0.50000  0.42810  Biso   1.000  O 
  C331     1.0000 0.11720  0.50000  0.38280  Biso   1.000  C 
  O94      1.0000 0.07190  0.50000  0.36740  Biso   1.000  O 
  C332     1.0000 0.15650  0.50000  0.34350  Biso   1.000  C 
  C333     1.0000 0.20580  0.50000  0.35530  Biso   1.000  C 
  C334     1.0000 0.14470  0.50000  0.29420  Biso   1.000  C 
  C335     1.0000 0.24200  0.50000  0.32050  Biso   1.000  C 
  H331     1.0000 0.21490  0.50000  0.38860  Biso   1.000  H 
  C336     1.0000 0.17950  0.50000  0.25800  Biso   1.000  C 
  H332     1.0000 0.11140  0.50000  0.28510  Biso   1.000  H 
  C337     1.0000 0.23070  0.50000  0.26930  Biso   1.000  C 
  C338     1.0000 0.26930  0.50000  0.23070  Biso   1.000  C 
  H333     1.0000 0.27510  0.50000  0.33050  Biso   1.000  H 
  C339     1.0000 0.32050  0.50000  0.24200  Biso   1.000  C 
  N31      1.0000 0.15841  0.49178  0.20540  Biso   1.000  N 
  C340     1.0000 0.25800  0.50000  0.17950  Biso   1.000  C 
  C341     1.0000 0.35530  0.50000  0.20580  Biso   1.000  C 
  N32      1.0000 0.34109  0.48291  0.29263  Biso   1.000  N 
  C342     1.0000 0.29420  0.50000  0.14470  Biso   1.000  C 
  H334     1.0000 0.22490  0.50000  0.16950  Biso   1.000  H 
  C343     1.0000 0.34350  0.50000  0.15650  Biso   1.000  C 
  C344     1.0000 0.38280  0.50000  0.11720  Biso   1.000  C 
  H335     1.0000 0.38860  0.50000  0.21490  Biso   1.000  H 
  H336     1.0000 0.28510  0.50000  0.11140  Biso   1.000  H 
  O95      1.0000 0.42810  0.50000  0.13260  Biso   1.000  O 
  O96      1.0000 0.36740  0.50000  0.07190  Biso   1.000  O 
  C345     1.0000 0.35361  0.43103  0.30139  Biso   1.000  C 
  C346     1.0000 0.37760  0.51601  0.31445  Biso   1.000  C 
  C347     1.0000 0.13016  0.44624  0.19754  Biso   1.000  C 
  C348     1.0000 0.13744  0.53467  0.17831  Biso   1.000  C 
  H337     1.0000 0.36096  0.53863  0.34347  Biso   1.000  H 
  H338     1.0000 0.39593  0.53821  0.28679  Biso   1.000  H 
  C349     1.0000 0.41785  0.48459  0.33501  Biso   1.000  C 
  H339     1.0000 0.33104  0.42003  0.33330  Biso   1.000  H 
  C350     1.0000 0.40917  0.43270  0.31473  Biso   1.000  C 
  H340     1.0000 0.34889  0.40608  0.26850  Biso   1.000  H 
  H341     1.0000 0.43378  0.42525  0.28029  Biso   1.000  H 
  H342     1.0000 0.42095  0.40529  0.34239  Biso   1.000  H 
  H343     1.0000 0.41659  0.48513  0.37679  Biso   1.000  H 
  H344     1.0000 0.45586  0.50042  0.32244  Biso   1.000  H 
  H345     1.0000 0.16117  0.54564  0.14922  Biso   1.000  H 
  H346     1.0000 0.12863  0.56771  0.20282  Biso   1.000  H 
  C351     1.0000 0.08913  0.51613  0.15350  Biso   1.000  C 
  H347     1.0000 0.08611  0.52828  0.11383  Biso   1.000  H 
  H348     1.0000 0.05879  0.53248  0.17518  Biso   1.000  H 
  C352     1.0000 0.08464  0.46092  0.16282  Biso   1.000  C 
  H349     1.0000 0.11475  0.43341  0.23238  Biso   1.000  H 
  H350     1.0000 0.15615  0.41854  0.18233  Biso   1.000  H 
  H351     1.0000 0.08569  0.43892  0.12689  Biso   1.000  H 
  H352     1.0000 0.04903  0.45099  0.18040  Biso   1.000  H 
  O97      1.0000 0.07190  0.63260  0.50000  Biso   1.000  O 
  C353     1.0000 0.11720  0.61720  0.50000  Biso   1.000  C 
  O98      1.0000 0.13260  0.57190  0.50000  Biso   1.000  O 
  C354     1.0000 0.15650  0.65650  0.50000  Biso   1.000  C 
  C355     1.0000 0.14470  0.70580  0.50000  Biso   1.000  C 
  C356     1.0000 0.20580  0.64470  0.50000  Biso   1.000  C 
  C357     1.0000 0.17950  0.74200  0.50000  Biso   1.000  C 
  H353     1.0000 0.11140  0.71490  0.50000  Biso   1.000  H 
  C358     1.0000 0.24200  0.67950  0.50000  Biso   1.000  C 
  H354     1.0000 0.21490  0.61140  0.50000  Biso   1.000  H 
  C359     1.0000 0.23070  0.73070  0.50000  Biso   1.000  C 
  C360     1.0000 0.26930  0.76930  0.50000  Biso   1.000  C 
  H355     1.0000 0.16950  0.77510  0.50000  Biso   1.000  H 
  C361     1.0000 0.25800  0.82050  0.50000  Biso   1.000  C 
  N33      1.0000 0.29400  0.65786  0.48597  Biso   1.000  N 
  C362     1.0000 0.32050  0.75800  0.50000  Biso   1.000  C 
  C363     1.0000 0.29420  0.85530  0.50000  Biso   1.000  C 
  N34      1.0000 0.20692  0.84164  0.48452  Biso   1.000  N 
  C364     1.0000 0.35530  0.79420  0.50000  Biso   1.000  C 
  H356     1.0000 0.33050  0.72490  0.50000  Biso   1.000  H 
  C365     1.0000 0.34350  0.84350  0.50000  Biso   1.000  C 
  C366     1.0000 0.38280  0.88280  0.50000  Biso   1.000  C 
  H357     1.0000 0.28510  0.88860  0.50000  Biso   1.000  H 
  H358     1.0000 0.38860  0.78510  0.50000  Biso   1.000  H 
  O99      1.0000 0.36740  0.92810  0.50000  Biso   1.000  O 
  O100     1.0000 0.42810  0.86740  0.50000  Biso   1.000  O 
  C367     1.0000 0.18098  0.87534  0.51745  Biso   1.000  C 
  C368     1.0000 0.19850  0.85216  0.43195  Biso   1.000  C 
  C369     1.0000 0.32372  0.62994  0.52280  Biso   1.000  C 
  C370     1.0000 0.30618  0.64624  0.43392  Biso   1.000  C 
  H359     1.0000 0.16579  0.82965  0.42042  Biso   1.000  H 
  H360     1.0000 0.23008  0.84465  0.40767  Biso   1.000  H 
  C371     1.0000 0.18619  0.90716  0.43296  Biso   1.000  C 
  H361     1.0000 0.14250  0.86026  0.52603  Biso   1.000  H 
  C372     1.0000 0.17587  0.92177  0.48865  Biso   1.000  C 
  H362     1.0000 0.19907  0.87959  0.55230  Biso   1.000  H 
  H363     1.0000 0.20445  0.94919  0.49952  Biso   1.000  H 
  H364     1.0000 0.13716  0.93762  0.49411  Biso   1.000  H 
  H365     1.0000 0.15271  0.91261  0.41305  Biso   1.000  H 
  H366     1.0000 0.21871  0.92826  0.41604  Biso   1.000  H 
  H367     1.0000 0.32336  0.67978  0.41701  Biso   1.000  H 
  H368     1.0000 0.27362  0.63571  0.41166  Biso   1.000  H 
  C373     1.0000 0.34548  0.60411  0.43804  Biso   1.000  C 
  H369     1.0000 0.38284  0.61966  0.42828  Biso   1.000  H 
  H370     1.0000 0.33655  0.57204  0.41331  Biso   1.000  H 
  C374     1.0000 0.34434  0.58611  0.49282  Biso   1.000  C 
  H371     1.0000 0.30006  0.61768  0.55367  Biso   1.000  H 
  H372     1.0000 0.35441  0.65206  0.54046  Biso   1.000  H 
  H373     1.0000 0.38118  0.57146  0.50606  Biso   1.000  H 
  H374     1.0000 0.31557  0.55584  0.49724  Biso   1.000  H 
  O101     1.0000 0.07190  0.36740  0.50000  Biso   1.000  O 
  C375     1.0000 0.11720  0.38280  0.50000  Biso   1.000  C 
  O102     1.0000 0.13260  0.42810  0.50000  Biso   1.000  O 
  C376     1.0000 0.15650  0.34350  0.50000  Biso   1.000  C 
  C377     1.0000 0.14470  0.29420  0.50000  Biso   1.000  C 
  C378     1.0000 0.20580  0.35530  0.50000  Biso   1.000  C 
  C379     1.0000 0.17950  0.25800  0.50000  Biso   1.000  C 
  H375     1.0000 0.11140  0.28510  0.50000  Biso   1.000  H 
  C380     1.0000 0.24200  0.32050  0.50000  Biso   1.000  C 
  H376     1.0000 0.21490  0.38860  0.50000  Biso   1.000  H 
  C381     1.0000 0.23070  0.26930  0.50000  Biso   1.000  C 
  C382     1.0000 0.26930  0.23070  0.50000  Biso   1.000  C 
  H377     1.0000 0.16950  0.22490  0.50000  Biso   1.000  H 
  C383     1.0000 0.25800  0.17950  0.50000  Biso   1.000  C 
  N35      1.0000 0.29400  0.34214  0.51403  Biso   1.000  N 
  C384     1.0000 0.32050  0.24200  0.50000  Biso   1.000  C 
  C385     1.0000 0.29420  0.14470  0.50000  Biso   1.000  C 
  N36      1.0000 0.20692  0.15836  0.51548  Biso   1.000  N 
  C386     1.0000 0.35530  0.20580  0.50000  Biso   1.000  C 
  H378     1.0000 0.33050  0.27510  0.50000  Biso   1.000  H 
  C387     1.0000 0.34350  0.15650  0.50000  Biso   1.000  C 
  C388     1.0000 0.38280  0.11720  0.50000  Biso   1.000  C 
  H379     1.0000 0.28510  0.11140  0.50000  Biso   1.000  H 
  H380     1.0000 0.38860  0.21490  0.50000  Biso   1.000  H 
  O103     1.0000 0.36740  0.07190  0.50000  Biso   1.000  O 
  O104     1.0000 0.42810  0.13260  0.50000  Biso   1.000  O 
  C389     1.0000 0.18098  0.12466  0.48255  Biso   1.000  C 
  C390     1.0000 0.19850  0.14785  0.56805  Biso   1.000  C 
  C391     1.0000 0.32372  0.37006  0.47720  Biso   1.000  C 
  C392     1.0000 0.30618  0.35376  0.56608  Biso   1.000  C 
  H381     1.0000 0.16579  0.17035  0.57958  Biso   1.000  H 
  H382     1.0000 0.23008  0.15535  0.59233  Biso   1.000  H 
  C393     1.0000 0.18619  0.09284  0.56704  Biso   1.000  C 
  H383     1.0000 0.14250  0.13974  0.47397  Biso   1.000  H 
  C394     1.0000 0.17587  0.07823  0.51135  Biso   1.000  C 
  H384     1.0000 0.19907  0.12041  0.44770  Biso   1.000  H 
  H385     1.0000 0.20445  0.05081  0.50048  Biso   1.000  H 
  H386     1.0000 0.13716  0.06238  0.50589  Biso   1.000  H 
  H387     1.0000 0.15271  0.08739  0.58695  Biso   1.000  H 
  H388     1.0000 0.21871  0.07174  0.58396  Biso   1.000  H 
  H389     1.0000 0.32336  0.32022  0.58299  Biso   1.000  H 
  H390     1.0000 0.27362  0.36429  0.58834  Biso   1.000  H 
  C395     1.0000 0.34548  0.39589  0.56196  Biso   1.000  C 
  H391     1.0000 0.38284  0.38034  0.57172  Biso   1.000  H 
  H392     1.0000 0.33655  0.42796  0.58669  Biso   1.000  H 
  C396     1.0000 0.34434  0.41389  0.50718  Biso   1.000  C 
  H393     1.0000 0.30006  0.38232  0.44633  Biso   1.000  H 
  H394     1.0000 0.35441  0.34794  0.45954  Biso   1.000  H 
  H395     1.0000 0.38118  0.42854  0.49394  Biso   1.000  H 
  H396     1.0000 0.31557  0.44416  0.50276  Biso   1.000  H 
  O105     1.0000 0.92810  0.36740  0.50000  Biso   1.000  O 
  C397     1.0000 0.88280  0.38280  0.50000  Biso   1.000  C 
  O106     1.0000 0.86740  0.42810  0.50000  Biso   1.000  O 
  C398     1.0000 0.84350  0.34350  0.50000  Biso   1.000  C 
  C399     1.0000 0.85530  0.29420  0.50000  Biso   1.000  C 
  C400     1.0000 0.79420  0.35530  0.50000  Biso   1.000  C 
  C401     1.0000 0.82050  0.25800  0.50000  Biso   1.000  C 
  H397     1.0000 0.88860  0.28510  0.50000  Biso   1.000  H 
  C402     1.0000 0.75800  0.32050  0.50000  Biso   1.000  C 
  H398     1.0000 0.78510  0.38860  0.50000  Biso   1.000  H 
  C403     1.0000 0.76930  0.26930  0.50000  Biso   1.000  C 
  C404     1.0000 0.73070  0.23070  0.50000  Biso   1.000  C 
  H399     1.0000 0.83050  0.22490  0.50000  Biso   1.000  H 
  C405     1.0000 0.74200  0.17950  0.50000  Biso   1.000  C 
  N37      1.0000 0.70600  0.34214  0.48597  Biso   1.000  N 
  C406     1.0000 0.67950  0.24200  0.50000  Biso   1.000  C 
  C407     1.0000 0.70580  0.14470  0.50000  Biso   1.000  C 
  N38      1.0000 0.79308  0.15836  0.48452  Biso   1.000  N 
  C408     1.0000 0.64470  0.20580  0.50000  Biso   1.000  C 
  H400     1.0000 0.66950  0.27510  0.50000  Biso   1.000  H 
  C409     1.0000 0.65650  0.15650  0.50000  Biso   1.000  C 
  C410     1.0000 0.61720  0.11720  0.50000  Biso   1.000  C 
  H401     1.0000 0.71490  0.11140  0.50000  Biso   1.000  H 
  H402     1.0000 0.61140  0.21490  0.50000  Biso   1.000  H 
  O107     1.0000 0.63260  0.07190  0.50000  Biso   1.000  O 
  O108     1.0000 0.57190  0.13260  0.50000  Biso   1.000  O 
  C411     1.0000 0.81902  0.12466  0.51745  Biso   1.000  C 
  C412     1.0000 0.80150  0.14785  0.43195  Biso   1.000  C 
  C413     1.0000 0.67628  0.37006  0.52280  Biso   1.000  C 
  C414     1.0000 0.69382  0.35376  0.43392  Biso   1.000  C 
  H403     1.0000 0.83421  0.17035  0.42042  Biso   1.000  H 
  H404     1.0000 0.76992  0.15535  0.40767  Biso   1.000  H 
  C415     1.0000 0.81381  0.09284  0.43296  Biso   1.000  C 
  H405     1.0000 0.85750  0.13974  0.52603  Biso   1.000  H 
  C416     1.0000 0.82413  0.07823  0.48865  Biso   1.000  C 
  H406     1.0000 0.80093  0.12041  0.55230  Biso   1.000  H 
  H407     1.0000 0.79555  0.05081  0.49952  Biso   1.000  H 
  H408     1.0000 0.86284  0.06238  0.49411  Biso   1.000  H 
  H409     1.0000 0.84729  0.08739  0.41305  Biso   1.000  H 
  H410     1.0000 0.78129  0.07174  0.41604  Biso   1.000  H 
  H411     1.0000 0.67664  0.32022  0.41701  Biso   1.000  H 
  H412     1.0000 0.72638  0.36429  0.41166  Biso   1.000  H 
  C417     1.0000 0.65452  0.39589  0.43804  Biso   1.000  C 
  H413     1.0000 0.61716  0.38034  0.42828  Biso   1.000  H 
  H414     1.0000 0.66345  0.42796  0.41331  Biso   1.000  H 
  C418     1.0000 0.65566  0.41389  0.49282  Biso   1.000  C 
  H415     1.0000 0.69994  0.38232  0.55367  Biso   1.000  H 
  H416     1.0000 0.64559  0.34794  0.54046  Biso   1.000  H 
  H417     1.0000 0.61882  0.42854  0.50606  Biso   1.000  H 
  H418     1.0000 0.68443  0.44416  0.49724  Biso   1.000  H 
  O109     1.0000 0.92810  0.63260  0.50000  Biso   1.000  O 
  C419     1.0000 0.88280  0.61720  0.50000  Biso   1.000  C 
  O110     1.0000 0.86740  0.57190  0.50000  Biso   1.000  O 
  C420     1.0000 0.84350  0.65650  0.50000  Biso   1.000  C 
  C421     1.0000 0.85530  0.70580  0.50000  Biso   1.000  C 
  C422     1.0000 0.79420  0.64470  0.50000  Biso   1.000  C 
  C423     1.0000 0.82050  0.74200  0.50000  Biso   1.000  C 
  H419     1.0000 0.88860  0.71490  0.50000  Biso   1.000  H 
  C424     1.0000 0.75800  0.67950  0.50000  Biso   1.000  C 
  H420     1.0000 0.78510  0.61140  0.50000  Biso   1.000  H 
  C425     1.0000 0.76930  0.73070  0.50000  Biso   1.000  C 
  C426     1.0000 0.73070  0.76930  0.50000  Biso   1.000  C 
  H421     1.0000 0.83050  0.77510  0.50000  Biso   1.000  H 
  C427     1.0000 0.74200  0.82050  0.50000  Biso   1.000  C 
  N39      1.0000 0.70600  0.65786  0.51403  Biso   1.000  N 
  C428     1.0000 0.67950  0.75800  0.50000  Biso   1.000  C 
  C429     1.0000 0.70580  0.85530  0.50000  Biso   1.000  C 
  N40      1.0000 0.79308  0.84164  0.51548  Biso   1.000  N 
  C430     1.0000 0.64470  0.79420  0.50000  Biso   1.000  C 
  H422     1.0000 0.66950  0.72490  0.50000  Biso   1.000  H 
  C431     1.0000 0.65650  0.84350  0.50000  Biso   1.000  C 
  C432     1.0000 0.61720  0.88280  0.50000  Biso   1.000  C 
  H423     1.0000 0.71490  0.88860  0.50000  Biso   1.000  H 
  H424     1.0000 0.61140  0.78510  0.50000  Biso   1.000  H 
  O111     1.0000 0.63260  0.92810  0.50000  Biso   1.000  O 
  O112     1.0000 0.57190  0.86740  0.50000  Biso   1.000  O 
  C433     1.0000 0.81902  0.87534  0.48255  Biso   1.000  C 
  C434     1.0000 0.80150  0.85216  0.56805  Biso   1.000  C 
  C435     1.0000 0.67628  0.62994  0.47720  Biso   1.000  C 
  C436     1.0000 0.69382  0.64624  0.56608  Biso   1.000  C 
  H425     1.0000 0.83421  0.82965  0.57958  Biso   1.000  H 
  H426     1.0000 0.76992  0.84465  0.59233  Biso   1.000  H 
  C437     1.0000 0.81381  0.90716  0.56704  Biso   1.000  C 
  H427     1.0000 0.85750  0.86026  0.47397  Biso   1.000  H 
  C438     1.0000 0.82413  0.92177  0.51135  Biso   1.000  C 
  H428     1.0000 0.80093  0.87959  0.44770  Biso   1.000  H 
  H429     1.0000 0.79555  0.94919  0.50048  Biso   1.000  H 
  H430     1.0000 0.86284  0.93762  0.50589  Biso   1.000  H 
  H431     1.0000 0.84729  0.91261  0.58695  Biso   1.000  H 
  H432     1.0000 0.78129  0.92826  0.58396  Biso   1.000  H 
  H433     1.0000 0.67664  0.67978  0.58299  Biso   1.000  H 
  H434     1.0000 0.72638  0.63571  0.58834  Biso   1.000  H 
  C439     1.0000 0.65452  0.60411  0.56196  Biso   1.000  C 
  H435     1.0000 0.61716  0.61966  0.57172  Biso   1.000  H 
  H436     1.0000 0.66345  0.57204  0.58669  Biso   1.000  H 
  C440     1.0000 0.65566  0.58611  0.50718  Biso   1.000  C 
  H437     1.0000 0.69994  0.61768  0.44633  Biso   1.000  H 
  H438     1.0000 0.64559  0.65206  0.45954  Biso   1.000  H 
  H439     1.0000 0.61882  0.57146  0.49394  Biso   1.000  H 
  H440     1.0000 0.68443  0.55584  0.50276  Biso   1.000  H 
  O113     1.0000 0.50000  0.07190  0.63260  Biso   1.000  O 
  C441     1.0000 0.50000  0.11720  0.61720  Biso   1.000  C 
  O114     1.0000 0.50000  0.13260  0.57190  Biso   1.000  O 
  C442     1.0000 0.50000  0.15650  0.65650  Biso   1.000  C 
  C443     1.0000 0.50000  0.14470  0.70580  Biso   1.000  C 
  C444     1.0000 0.50000  0.20580  0.64470  Biso   1.000  C 
  C445     1.0000 0.50000  0.17950  0.74200  Biso   1.000  C 
  H441     1.0000 0.50000  0.11140  0.71490  Biso   1.000  H 
  C446     1.0000 0.50000  0.24200  0.67950  Biso   1.000  C 
  H442     1.0000 0.50000  0.21490  0.61140  Biso   1.000  H 
  C447     1.0000 0.50000  0.23070  0.73070  Biso   1.000  C 
  C448     1.0000 0.50000  0.26930  0.76930  Biso   1.000  C 
  H443     1.0000 0.50000  0.16950  0.77510  Biso   1.000  H 
  C449     1.0000 0.50000  0.25800  0.82050  Biso   1.000  C 
  N41      1.0000 0.50598  0.29467  0.65840  Biso   1.000  N 
  C450     1.0000 0.50000  0.32050  0.75800  Biso   1.000  C 
  C451     1.0000 0.50000  0.29420  0.85530  Biso   1.000  C 
  N42      1.0000 0.48361  0.20694  0.84157  Biso   1.000  N 
  C452     1.0000 0.50000  0.35530  0.79420  Biso   1.000  C 
  H444     1.0000 0.50000  0.33050  0.72490  Biso   1.000  H 
  C453     1.0000 0.50000  0.34350  0.84350  Biso   1.000  C 
  C454     1.0000 0.50000  0.38280  0.88280  Biso   1.000  C 
  H445     1.0000 0.50000  0.28510  0.88860  Biso   1.000  H 
  H446     1.0000 0.50000  0.38860  0.78510  Biso   1.000  H 
  O115     1.0000 0.50000  0.36740  0.92810  Biso   1.000  O 
  O116     1.0000 0.50000  0.42810  0.86740  Biso   1.000  O 
  C455     1.0000 0.51601  0.18062  0.87525  Biso   1.000  C 
  C456     1.0000 0.43096  0.19914  0.85245  Biso   1.000  C 
  C457     1.0000 0.55010  0.30353  0.62854  Biso   1.000  C 
  C458     1.0000 0.46161  0.32065  0.63914  Biso   1.000  C 
  H447     1.0000 0.41875  0.16635  0.83058  Biso   1.000  H 
  H448     1.0000 0.40697  0.23105  0.84485  Biso   1.000  H 
  C459     1.0000 0.43216  0.18772  0.90763  Biso   1.000  C 
  H449     1.0000 0.52349  0.14173  0.86062  Biso   1.000  H 
  C460     1.0000 0.48725  0.17641  0.92183  Biso   1.000  C 
  H450     1.0000 0.55119  0.19827  0.87928  Biso   1.000  H 
  H451     1.0000 0.49898  0.20523  0.94868  Biso   1.000  H 
  H452     1.0000 0.49260  0.13786  0.93828  Biso   1.000  H 
  H453     1.0000 0.41199  0.15445  0.91415  Biso   1.000  H 
  H454     1.0000 0.41536  0.22066  0.92828  Biso   1.000  H 
  H455     1.0000 0.45262  0.35053  0.66267  Biso   1.000  H 
  H456     1.0000 0.42769  0.29643  0.63358  Biso   1.000  H 
  C461     1.0000 0.47743  0.34388  0.58939  Biso   1.000  C 
  H457     1.0000 0.46288  0.38271  0.58514  Biso   1.000  H 
  H458     1.0000 0.46323  0.31958  0.56050  Biso   1.000  H 
  C462     1.0000 0.53314  0.34004  0.58538  Biso   1.000  C 
  H459     1.0000 0.56169  0.26944  0.61045  Biso   1.000  H 
  H460     1.0000 0.57952  0.31688  0.65381  Biso   1.000  H 
  H461     1.0000 0.55165  0.37784  0.58872  Biso   1.000  H 
  H462     1.0000 0.54447  0.32516  0.54903  Biso   1.000  H 
  O117     1.0000 0.50000  0.07190  0.36740  Biso   1.000  O 
  C463     1.0000 0.50000  0.11720  0.38280  Biso   1.000  C 
  O118     1.0000 0.50000  0.13260  0.42810  Biso   1.000  O 
  C464     1.0000 0.50000  0.15650  0.34350  Biso   1.000  C 
  C465     1.0000 0.50000  0.14470  0.29420  Biso   1.000  C 
  C466     1.0000 0.50000  0.20580  0.35530  Biso   1.000  C 
  C467     1.0000 0.50000  0.17950  0.25800  Biso   1.000  C 
  H463     1.0000 0.50000  0.11140  0.28510  Biso   1.000  H 
  C468     1.0000 0.50000  0.24200  0.32050  Biso   1.000  C 
  H464     1.0000 0.50000  0.21490  0.38860  Biso   1.000  H 
  C469     1.0000 0.50000  0.23070  0.26930  Biso   1.000  C 
  C470     1.0000 0.50000  0.26930  0.23070  Biso   1.000  C 
  H465     1.0000 0.50000  0.16950  0.22490  Biso   1.000  H 
  C471     1.0000 0.50000  0.25800  0.17950  Biso   1.000  C 
  N43      1.0000 0.49402  0.29467  0.34160  Biso   1.000  N 
  C472     1.0000 0.50000  0.32050  0.24200  Biso   1.000  C 
  C473     1.0000 0.50000  0.29420  0.14470  Biso   1.000  C 
  N44      1.0000 0.51639  0.20694  0.15843  Biso   1.000  N 
  C474     1.0000 0.50000  0.35530  0.20580  Biso   1.000  C 
  H466     1.0000 0.50000  0.33050  0.27510  Biso   1.000  H 
  C475     1.0000 0.50000  0.34350  0.15650  Biso   1.000  C 
  C476     1.0000 0.50000  0.38280  0.11720  Biso   1.000  C 
  H467     1.0000 0.50000  0.28510  0.11140  Biso   1.000  H 
  H468     1.0000 0.50000  0.38860  0.21490  Biso   1.000  H 
  O119     1.0000 0.50000  0.36740  0.07190  Biso   1.000  O 
  O120     1.0000 0.50000  0.42810  0.13260  Biso   1.000  O 
  C477     1.0000 0.48399  0.18062  0.12475  Biso   1.000  C 
  C478     1.0000 0.56904  0.19914  0.14755  Biso   1.000  C 
  C479     1.0000 0.44990  0.30353  0.37146  Biso   1.000  C 
  C480     1.0000 0.53839  0.32065  0.36086  Biso   1.000  C 
  H469     1.0000 0.58125  0.16635  0.16942  Biso   1.000  H 
  H470     1.0000 0.59303  0.23105  0.15514  Biso   1.000  H 
  C481     1.0000 0.56784  0.18772  0.09237  Biso   1.000  C 
  H471     1.0000 0.47651  0.14173  0.13938  Biso   1.000  H 
  C482     1.0000 0.51275  0.17641  0.07817  Biso   1.000  C 
  H472     1.0000 0.44881  0.19827  0.12072  Biso   1.000  H 
  H473     1.0000 0.50102  0.20523  0.05132  Biso   1.000  H 
  H474     1.0000 0.50740  0.13786  0.06172  Biso   1.000  H 
  H475     1.0000 0.58801  0.15445  0.08585  Biso   1.000  H 
  H476     1.0000 0.58464  0.22066  0.07172  Biso   1.000  H 
  H477     1.0000 0.54738  0.35053  0.33733  Biso   1.000  H 
  H478     1.0000 0.57231  0.29643  0.36642  Biso   1.000  H 
  C483     1.0000 0.52257  0.34388  0.41061  Biso   1.000  C 
  H479     1.0000 0.53712  0.38271  0.41486  Biso   1.000  H 
  H480     1.0000 0.53677  0.31958  0.43950  Biso   1.000  H 
  C484     1.0000 0.46686  0.34004  0.41462  Biso   1.000  C 
  H481     1.0000 0.43831  0.26944  0.38955  Biso   1.000  H 
  H482     1.0000 0.42048  0.31688  0.34619  Biso   1.000  H 
  H483     1.0000 0.44835  0.37784  0.41128  Biso   1.000  H 
  H484     1.0000 0.45553  0.32516  0.45097  Biso   1.000  H 
  O121     1.0000 0.50000  0.92810  0.36740  Biso   1.000  O 
  C485     1.0000 0.50000  0.88280  0.38280  Biso   1.000  C 
  O122     1.0000 0.50000  0.86740  0.42810  Biso   1.000  O 
  C486     1.0000 0.50000  0.84350  0.34350  Biso   1.000  C 
  C487     1.0000 0.50000  0.85530  0.29420  Biso   1.000  C 
  C488     1.0000 0.50000  0.79420  0.35530  Biso   1.000  C 
  C489     1.0000 0.50000  0.82050  0.25800  Biso   1.000  C 
  H485     1.0000 0.50000  0.88860  0.28510  Biso   1.000  H 
  C490     1.0000 0.50000  0.75800  0.32050  Biso   1.000  C 
  H486     1.0000 0.50000  0.78510  0.38860  Biso   1.000  H 
  C491     1.0000 0.50000  0.76930  0.26930  Biso   1.000  C 
  C492     1.0000 0.50000  0.73070  0.23070  Biso   1.000  C 
  H487     1.0000 0.50000  0.83050  0.22490  Biso   1.000  H 
  C493     1.0000 0.50000  0.74200  0.17950  Biso   1.000  C 
  N45      1.0000 0.50598  0.70533  0.34160  Biso   1.000  N 
  C494     1.0000 0.50000  0.67950  0.24200  Biso   1.000  C 
  C495     1.0000 0.50000  0.70580  0.14470  Biso   1.000  C 
  N46      1.0000 0.48361  0.79306  0.15843  Biso   1.000  N 
  C496     1.0000 0.50000  0.64470  0.20580  Biso   1.000  C 
  H488     1.0000 0.50000  0.66950  0.27510  Biso   1.000  H 
  C497     1.0000 0.50000  0.65650  0.15650  Biso   1.000  C 
  C498     1.0000 0.50000  0.61720  0.11720  Biso   1.000  C 
  H489     1.0000 0.50000  0.71490  0.11140  Biso   1.000  H 
  H490     1.0000 0.50000  0.61140  0.21490  Biso   1.000  H 
  O123     1.0000 0.50000  0.63260  0.07190  Biso   1.000  O 
  O124     1.0000 0.50000  0.57190  0.13260  Biso   1.000  O 
  C499     1.0000 0.51601  0.81937  0.12475  Biso   1.000  C 
  C500     1.0000 0.43096  0.80086  0.14755  Biso   1.000  C 
  C501     1.0000 0.55010  0.69646  0.37146  Biso   1.000  C 
  C502     1.0000 0.46161  0.67935  0.36086  Biso   1.000  C 
  H491     1.0000 0.41875  0.83365  0.16942  Biso   1.000  H 
  H492     1.0000 0.40697  0.76895  0.15514  Biso   1.000  H 
  C503     1.0000 0.43216  0.81228  0.09237  Biso   1.000  C 
  H493     1.0000 0.52349  0.85827  0.13938  Biso   1.000  H 
  C504     1.0000 0.48725  0.82359  0.07817  Biso   1.000  C 
  H494     1.0000 0.55119  0.80173  0.12072  Biso   1.000  H 
  H495     1.0000 0.49898  0.79477  0.05132  Biso   1.000  H 
  H496     1.0000 0.49260  0.86214  0.06172  Biso   1.000  H 
  H497     1.0000 0.41199  0.84555  0.08585  Biso   1.000  H 
  H498     1.0000 0.41536  0.77934  0.07172  Biso   1.000  H 
  H499     1.0000 0.45262  0.64947  0.33733  Biso   1.000  H 
  H500     1.0000 0.42769  0.70357  0.36642  Biso   1.000  H 
  C505     1.0000 0.47743  0.65612  0.41061  Biso   1.000  C 
  H501     1.0000 0.46288  0.61729  0.41486  Biso   1.000  H 
  H502     1.0000 0.46323  0.68042  0.43950  Biso   1.000  H 
  C506     1.0000 0.53314  0.65996  0.41462  Biso   1.000  C 
  H503     1.0000 0.56169  0.73055  0.38955  Biso   1.000  H 
  H504     1.0000 0.57952  0.68312  0.34619  Biso   1.000  H 
  H505     1.0000 0.55165  0.62216  0.41128  Biso   1.000  H 
  H506     1.0000 0.54447  0.67484  0.45097  Biso   1.000  H 
  O125     1.0000 0.50000  0.92810  0.63260  Biso   1.000  O 
  C507     1.0000 0.50000  0.88280  0.61720  Biso   1.000  C 
  O126     1.0000 0.50000  0.86740  0.57190  Biso   1.000  O 
  C508     1.0000 0.50000  0.84350  0.65650  Biso   1.000  C 
  C509     1.0000 0.50000  0.85530  0.70580  Biso   1.000  C 
  C510     1.0000 0.50000  0.79420  0.64470  Biso   1.000  C 
  C511     1.0000 0.50000  0.82050  0.74200  Biso   1.000  C 
  H507     1.0000 0.50000  0.88860  0.71490  Biso   1.000  H 
  C512     1.0000 0.50000  0.75800  0.67950  Biso   1.000  C 
  H508     1.0000 0.50000  0.78510  0.61140  Biso   1.000  H 
  C513     1.0000 0.50000  0.76930  0.73070  Biso   1.000  C 
  C514     1.0000 0.50000  0.73070  0.76930  Biso   1.000  C 
  H509     1.0000 0.50000  0.83050  0.77510  Biso   1.000  H 
  C515     1.0000 0.50000  0.74200  0.82050  Biso   1.000  C 
  N47      1.0000 0.49402  0.70533  0.65840  Biso   1.000  N 
  C516     1.0000 0.50000  0.67950  0.75800  Biso   1.000  C 
  C517     1.0000 0.50000  0.70580  0.85530  Biso   1.000  C 
  N48      1.0000 0.51639  0.79306  0.84157  Biso   1.000  N 
  C518     1.0000 0.50000  0.64470  0.79420  Biso   1.000  C 
  H510     1.0000 0.50000  0.66950  0.72490  Biso   1.000  H 
  C519     1.0000 0.50000  0.65650  0.84350  Biso   1.000  C 
  C520     1.0000 0.50000  0.61720  0.88280  Biso   1.000  C 
  H511     1.0000 0.50000  0.71490  0.88860  Biso   1.000  H 
  H512     1.0000 0.50000  0.61140  0.78510  Biso   1.000  H 
  O127     1.0000 0.50000  0.63260  0.92810  Biso   1.000  O 
  O128     1.0000 0.50000  0.57190  0.86740  Biso   1.000  O 
  C521     1.0000 0.48399  0.81937  0.87525  Biso   1.000  C 
  C522     1.0000 0.56904  0.80086  0.85245  Biso   1.000  C 
  C523     1.0000 0.44990  0.69646  0.62854  Biso   1.000  C 
  C524     1.0000 0.53839  0.67935  0.63914  Biso   1.000  C 
  H513     1.0000 0.58125  0.83365  0.83058  Biso   1.000  H 
  H514     1.0000 0.59303  0.76895  0.84485  Biso   1.000  H 
  C525     1.0000 0.56784  0.81228  0.90763  Biso   1.000  C 
  H515     1.0000 0.47651  0.85827  0.86062  Biso   1.000  H 
  C526     1.0000 0.51275  0.82359  0.92183  Biso   1.000  C 
  H516     1.0000 0.44881  0.80173  0.87928  Biso   1.000  H 
  H517     1.0000 0.50102  0.79477  0.94868  Biso   1.000  H 
  H518     1.0000 0.50740  0.86214  0.93828  Biso   1.000  H 
  H519     1.0000 0.58801  0.84555  0.91415  Biso   1.000  H 
  H520     1.0000 0.58464  0.77934  0.92828  Biso   1.000  H 
  H521     1.0000 0.54738  0.64947  0.66267  Biso   1.000  H 
  H522     1.0000 0.57231  0.70357  0.63358  Biso   1.000  H 
  C527     1.0000 0.52257  0.65612  0.58939  Biso   1.000  C 
  H523     1.0000 0.53712  0.61729  0.58514  Biso   1.000  H 
  H524     1.0000 0.53677  0.68042  0.56050  Biso   1.000  H 
  C528     1.0000 0.46686  0.65996  0.58538  Biso   1.000  C 
  H525     1.0000 0.43831  0.73055  0.61045  Biso   1.000  H 
  H526     1.0000 0.42048  0.68312  0.65381  Biso   1.000  H 
  H527     1.0000 0.44835  0.62216  0.58872  Biso   1.000  H 
  H528     1.0000 0.45553  0.67484  0.54903  Biso   1.000  H 
