data_image0
_cell_length_a       26.896
_cell_length_b       26.896
_cell_length_c       26.896
_cell_angle_alpha    90
_cell_angle_beta     90
_cell_angle_gamma    90

_symmetry_space_group_name_H-M    "P 1"
_symmetry_int_tables_number       1

loop_
  _symmetry_equiv_pos_as_xyz
  'x, y, z'

loop_
  _atom_site_label
  _atom_site_occupancy
  _atom_site_fract_x
  _atom_site_fract_y
  _atom_site_fract_z
  _atom_site_thermal_displace_type
  _atom_site_B_iso_or_equiv
  _atom_site_type_symbol
  Zr1      1.0000 0.09204  0.00000  0.00000  Biso   1.000  Zr
  Zr2      1.0000 0.90796  0.00000  0.00000  Biso   1.000  Zr
  Zr3      1.0000 0.00000  0.09204  0.00000  Biso   1.000  Zr
  Zr4      1.0000 0.00000  0.90796  0.00000  Biso   1.000  Zr
  Zr5      1.0000 0.00000  0.00000  0.09204  Biso   1.000  Zr
  Zr6      1.0000 0.00000  0.00000  0.90796  Biso   1.000  Zr
  Zr7      1.0000 0.09204  0.50000  0.50000  Biso   1.000  Zr
  Zr8      1.0000 0.90796  0.50000  0.50000  Biso   1.000  Zr
  Zr9      1.0000 0.00000  0.59204  0.50000  Biso   1.000  Zr
  Zr10     1.0000 0.00000  0.40796  0.50000  Biso   1.000  Zr
  Zr11     1.0000 0.00000  0.50000  0.59204  Biso   1.000  Zr
  Zr12     1.0000 0.00000  0.50000  0.40796  Biso   1.000  Zr
  Zr13     1.0000 0.59204  0.00000  0.50000  Biso   1.000  Zr
  Zr14     1.0000 0.40796  0.00000  0.50000  Biso   1.000  Zr
  Zr15     1.0000 0.50000  0.09204  0.50000  Biso   1.000  Zr
  Zr16     1.0000 0.50000  0.90796  0.50000  Biso   1.000  Zr
  Zr17     1.0000 0.50000  0.00000  0.59204  Biso   1.000  Zr
  Zr18     1.0000 0.50000  0.00000  0.40796  Biso   1.000  Zr
  Zr19     1.0000 0.59204  0.50000  0.00000  Biso   1.000  Zr
  Zr20     1.0000 0.40796  0.50000  0.00000  Biso   1.000  Zr
  Zr21     1.0000 0.50000  0.59204  0.00000  Biso   1.000  Zr
  Zr22     1.0000 0.50000  0.40796  0.00000  Biso   1.000  Zr
  Zr23     1.0000 0.50000  0.50000  0.09204  Biso   1.000  Zr
  Zr24     1.0000 0.50000  0.50000  0.90796  Biso   1.000  Zr
  O1       1.0000 0.04540  0.04540  0.04540  Biso   1.000  O 
  O2       1.0000 0.95460  0.95460  0.04540  Biso   1.000  O 
  O3       1.0000 0.95460  0.04540  0.95460  Biso   1.000  O 
  O4       1.0000 0.04540  0.95460  0.95460  Biso   1.000  O 
  O5       1.0000 0.04540  0.04540  0.95460  Biso   1.000  O 
  O6       1.0000 0.95460  0.95460  0.95460  Biso   1.000  O 
  O7       1.0000 0.04540  0.95460  0.04540  Biso   1.000  O 
  O8       1.0000 0.95460  0.04540  0.04540  Biso   1.000  O 
  O9       1.0000 0.04540  0.54540  0.54540  Biso   1.000  O 
  O10      1.0000 0.95460  0.45460  0.54540  Biso   1.000  O 
  O11      1.0000 0.95460  0.54540  0.45460  Biso   1.000  O 
  O12      1.0000 0.04540  0.45460  0.45460  Biso   1.000  O 
  O13      1.0000 0.04540  0.54540  0.45460  Biso   1.000  O 
  O14      1.0000 0.95460  0.45460  0.45460  Biso   1.000  O 
  O15      1.0000 0.04540  0.45460  0.54540  Biso   1.000  O 
  O16      1.0000 0.95460  0.54540  0.54540  Biso   1.000  O 
  O17      1.0000 0.54540  0.04540  0.54540  Biso   1.000  O 
  O18      1.0000 0.45460  0.95460  0.54540  Biso   1.000  O 
  O19      1.0000 0.45460  0.04540  0.45460  Biso   1.000  O 
  O20      1.0000 0.54540  0.95460  0.45460  Biso   1.000  O 
  O21      1.0000 0.54540  0.04540  0.45460  Biso   1.000  O 
  O22      1.0000 0.45460  0.95460  0.45460  Biso   1.000  O 
  O23      1.0000 0.54540  0.95460  0.54540  Biso   1.000  O 
  O24      1.0000 0.45460  0.04540  0.54540  Biso   1.000  O 
  O25      1.0000 0.54540  0.54540  0.04540  Biso   1.000  O 
  O26      1.0000 0.45460  0.45460  0.04540  Biso   1.000  O 
  O27      1.0000 0.45460  0.54540  0.95460  Biso   1.000  O 
  O28      1.0000 0.54540  0.45460  0.95460  Biso   1.000  O 
  O29      1.0000 0.54540  0.54540  0.95460  Biso   1.000  O 
  O30      1.0000 0.45460  0.45460  0.95460  Biso   1.000  O 
  O31      1.0000 0.54540  0.45460  0.04540  Biso   1.000  O 
  O32      1.0000 0.45460  0.54540  0.04540  Biso   1.000  O 
  O33      1.0000 0.13260  0.00000  0.07190  Biso   1.000  O 
  C1       1.0000 0.11720  0.00000  0.11720  Biso   1.000  C 
  O34      1.0000 0.07190  0.00000  0.13260  Biso   1.000  O 
  C2       1.0000 0.15650  0.00000  0.15650  Biso   1.000  C 
  C3       1.0000 0.20580  0.00000  0.14470  Biso   1.000  C 
  C4       1.0000 0.14470  0.00000  0.20580  Biso   1.000  C 
  C5       1.0000 0.24200  0.00000  0.17950  Biso   1.000  C 
  H1       1.0000 0.21490  0.00000  0.11140  Biso   1.000  H 
  C6       1.0000 0.17950  0.00000  0.24200  Biso   1.000  C 
  O35      1.0000 0.09288  0.99964  0.22072  Biso   1.000  O 
  C7       1.0000 0.23070  0.00000  0.23070  Biso   1.000  C 
  C8       1.0000 0.26930  0.00000  0.26930  Biso   1.000  C 
  H2       1.0000 0.27510  0.00000  0.16950  Biso   1.000  H 
  C9       1.0000 0.32050  0.00000  0.25800  Biso   1.000  C 
  H3       1.0000 0.16950  0.00000  0.27510  Biso   1.000  H 
  C10      1.0000 0.25800  0.00000  0.32050  Biso   1.000  C 
  C11      1.0000 0.35530  0.00000  0.29420  Biso   1.000  C 
  H4       1.0000 0.33050  0.00000  0.22490  Biso   1.000  H 
  C12      1.0000 0.29420  0.00000  0.35530  Biso   1.000  C 
  H5       1.0000 0.22490  0.00000  0.33050  Biso   1.000  H 
  C13      1.0000 0.34350  0.00000  0.34350  Biso   1.000  C 
  C14      1.0000 0.38280  0.00000  0.38280  Biso   1.000  C 
  O36      1.0000 0.40727  0.00009  0.27974  Biso   1.000  O 
  H6       1.0000 0.28510  0.00000  0.38860  Biso   1.000  H 
  O37      1.0000 0.42810  0.00000  0.36740  Biso   1.000  O 
  O38      1.0000 0.36740  0.00000  0.42810  Biso   1.000  O 
  H7       1.0000 0.41703  0.03534  0.27479  Biso   1.000  H 
  H8       1.0000 0.08259  0.03509  0.22205  Biso   1.000  H 
  O39      1.0000 0.86740  0.00000  0.07190  Biso   1.000  O 
  C15      1.0000 0.88280  0.00000  0.11720  Biso   1.000  C 
  O40      1.0000 0.92810  0.00000  0.13260  Biso   1.000  O 
  C16      1.0000 0.84350  0.00000  0.15650  Biso   1.000  C 
  C17      1.0000 0.79420  0.00000  0.14470  Biso   1.000  C 
  C18      1.0000 0.85530  0.00000  0.20580  Biso   1.000  C 
  C19      1.0000 0.75800  0.00000  0.17950  Biso   1.000  C 
  H9       1.0000 0.78510  0.00000  0.11140  Biso   1.000  H 
  C20      1.0000 0.82050  0.00000  0.24200  Biso   1.000  C 
  O41      1.0000 0.90713  0.99963  0.22071  Biso   1.000  O 
  C21      1.0000 0.76930  0.00000  0.23070  Biso   1.000  C 
  C22      1.0000 0.73070  0.00000  0.26930  Biso   1.000  C 
  H10      1.0000 0.72490  0.00000  0.16950  Biso   1.000  H 
  C23      1.0000 0.67950  0.00000  0.25800  Biso   1.000  C 
  H11      1.0000 0.83050  0.00000  0.27510  Biso   1.000  H 
  C24      1.0000 0.74200  0.00000  0.32050  Biso   1.000  C 
  C25      1.0000 0.64470  0.00000  0.29420  Biso   1.000  C 
  H12      1.0000 0.66950  0.00000  0.22490  Biso   1.000  H 
  C26      1.0000 0.70580  0.00000  0.35530  Biso   1.000  C 
  H13      1.0000 0.77510  0.00000  0.33050  Biso   1.000  H 
  C27      1.0000 0.65650  0.00000  0.34350  Biso   1.000  C 
  C28      1.0000 0.61720  0.00000  0.38280  Biso   1.000  C 
  O42      1.0000 0.59274  0.00011  0.27975  Biso   1.000  O 
  H14      1.0000 0.71490  0.00000  0.38860  Biso   1.000  H 
  O43      1.0000 0.57190  0.00000  0.36740  Biso   1.000  O 
  O44      1.0000 0.63260  0.00000  0.42810  Biso   1.000  O 
  H15      1.0000 0.58307  0.03534  0.27446  Biso   1.000  H 
  H16      1.0000 0.91736  0.03511  0.22208  Biso   1.000  H 
  O45      1.0000 0.86740  0.00000  0.92810  Biso   1.000  O 
  C29      1.0000 0.88280  0.00000  0.88280  Biso   1.000  C 
  O46      1.0000 0.92810  0.00000  0.86740  Biso   1.000  O 
  C30      1.0000 0.84350  0.00000  0.84350  Biso   1.000  C 
  C31      1.0000 0.79420  0.00000  0.85530  Biso   1.000  C 
  C32      1.0000 0.85530  0.00000  0.79420  Biso   1.000  C 
  C33      1.0000 0.75800  0.00000  0.82050  Biso   1.000  C 
  H17      1.0000 0.78510  0.00000  0.88860  Biso   1.000  H 
  C34      1.0000 0.82050  0.00000  0.75800  Biso   1.000  C 
  O47      1.0000 0.90715  0.99963  0.77930  Biso   1.000  O 
  C35      1.0000 0.76930  0.00000  0.76930  Biso   1.000  C 
  C36      1.0000 0.73070  0.00000  0.73070  Biso   1.000  C 
  H18      1.0000 0.72490  0.00000  0.83050  Biso   1.000  H 
  C37      1.0000 0.67950  0.00000  0.74200  Biso   1.000  C 
  H19      1.0000 0.83050  0.00000  0.72490  Biso   1.000  H 
  C38      1.0000 0.74200  0.00000  0.67950  Biso   1.000  C 
  C39      1.0000 0.64470  0.00000  0.70580  Biso   1.000  C 
  H20      1.0000 0.66950  0.00000  0.77510  Biso   1.000  H 
  C40      1.0000 0.70580  0.00000  0.64470  Biso   1.000  C 
  H21      1.0000 0.77510  0.00000  0.66950  Biso   1.000  H 
  C41      1.0000 0.65650  0.00000  0.65650  Biso   1.000  C 
  C42      1.0000 0.61720  0.00000  0.61720  Biso   1.000  C 
  O48      1.0000 0.59274  0.00015  0.72029  Biso   1.000  O 
  H22      1.0000 0.71490  0.00000  0.61140  Biso   1.000  H 
  O49      1.0000 0.57190  0.00000  0.63260  Biso   1.000  O 
  O50      1.0000 0.63260  0.00000  0.57190  Biso   1.000  O 
  H23      1.0000 0.58356  0.03533  0.72665  Biso   1.000  H 
  H24      1.0000 0.91733  0.03512  0.77790  Biso   1.000  H 
  O51      1.0000 0.13260  0.00000  0.92810  Biso   1.000  O 
  C43      1.0000 0.11720  0.00000  0.88280  Biso   1.000  C 
  O52      1.0000 0.07190  0.00000  0.86740  Biso   1.000  O 
  C44      1.0000 0.15650  0.00000  0.84350  Biso   1.000  C 
  C45      1.0000 0.20580  0.00000  0.85530  Biso   1.000  C 
  C46      1.0000 0.14470  0.00000  0.79420  Biso   1.000  C 
  C47      1.0000 0.24200  0.00000  0.82050  Biso   1.000  C 
  H25      1.0000 0.21490  0.00000  0.88860  Biso   1.000  H 
  C48      1.0000 0.17950  0.00000  0.75800  Biso   1.000  C 
  O53      1.0000 0.09288  0.99964  0.77928  Biso   1.000  O 
  C49      1.0000 0.23070  0.00000  0.76930  Biso   1.000  C 
  C50      1.0000 0.26930  0.00000  0.73070  Biso   1.000  C 
  H26      1.0000 0.27510  0.00000  0.83050  Biso   1.000  H 
  C51      1.0000 0.32050  0.00000  0.74200  Biso   1.000  C 
  H27      1.0000 0.16950  0.00000  0.72490  Biso   1.000  H 
  C52      1.0000 0.25800  0.00000  0.67950  Biso   1.000  C 
  C53      1.0000 0.35530  0.00000  0.70580  Biso   1.000  C 
  H28      1.0000 0.33050  0.00000  0.77510  Biso   1.000  H 
  C54      1.0000 0.29420  0.00000  0.64470  Biso   1.000  C 
  H29      1.0000 0.22490  0.00000  0.66950  Biso   1.000  H 
  C55      1.0000 0.34350  0.00000  0.65650  Biso   1.000  C 
  C56      1.0000 0.38280  0.00000  0.61720  Biso   1.000  C 
  O54      1.0000 0.40726  0.00015  0.72028  Biso   1.000  O 
  H30      1.0000 0.28510  0.00000  0.61140  Biso   1.000  H 
  O55      1.0000 0.42810  0.00000  0.63260  Biso   1.000  O 
  O56      1.0000 0.36740  0.00000  0.57190  Biso   1.000  O 
  H31      1.0000 0.41649  0.03533  0.72657  Biso   1.000  H 
  H32      1.0000 0.08259  0.03509  0.77795  Biso   1.000  H 
  O57      1.0000 0.07190  0.13260  0.00000  Biso   1.000  O 
  C57      1.0000 0.11720  0.11720  0.00000  Biso   1.000  C 
  O58      1.0000 0.13260  0.07190  0.00000  Biso   1.000  O 
  C58      1.0000 0.15650  0.15650  0.00000  Biso   1.000  C 
  C59      1.0000 0.14470  0.20580  0.00000  Biso   1.000  C 
  C60      1.0000 0.20580  0.14470  0.00000  Biso   1.000  C 
  C61      1.0000 0.17950  0.24200  0.00000  Biso   1.000  C 
  H33      1.0000 0.11140  0.21490  0.00000  Biso   1.000  H 
  C62      1.0000 0.24200  0.17950  0.00000  Biso   1.000  C 
  O59      1.0000 0.22032  0.09253  0.99962  Biso   1.000  O 
  C63      1.0000 0.23070  0.23070  0.00000  Biso   1.000  C 
  C64      1.0000 0.26930  0.26930  0.00000  Biso   1.000  C 
  H34      1.0000 0.16950  0.27510  0.00000  Biso   1.000  H 
  C65      1.0000 0.25800  0.32050  0.00000  Biso   1.000  C 
  H35      1.0000 0.27510  0.16950  0.00000  Biso   1.000  H 
  C66      1.0000 0.32050  0.25800  0.00000  Biso   1.000  C 
  C67      1.0000 0.29420  0.35530  0.00000  Biso   1.000  C 
  H36      1.0000 0.22490  0.33050  0.00000  Biso   1.000  H 
  C68      1.0000 0.35530  0.29420  0.00000  Biso   1.000  C 
  H37      1.0000 0.33050  0.22490  0.00000  Biso   1.000  H 
  C69      1.0000 0.34350  0.34350  0.00000  Biso   1.000  C 
  C70      1.0000 0.38280  0.38280  0.00000  Biso   1.000  C 
  O60      1.0000 0.27936  0.40730  0.00023  Biso   1.000  O 
  H38      1.0000 0.38860  0.28510  0.00000  Biso   1.000  H 
  O61      1.0000 0.36740  0.42810  0.00000  Biso   1.000  O 
  O62      1.0000 0.42810  0.36740  0.00000  Biso   1.000  O 
  H39      1.0000 0.27012  0.41460  0.03520  Biso   1.000  H 
  H40      1.0000 0.22360  0.08362  0.03535  Biso   1.000  H 
  O63      1.0000 0.07190  0.86740  0.00000  Biso   1.000  O 
  C71      1.0000 0.11720  0.88280  0.00000  Biso   1.000  C 
  O64      1.0000 0.13260  0.92810  0.00000  Biso   1.000  O 
  C72      1.0000 0.15650  0.84350  0.00000  Biso   1.000  C 
  C73      1.0000 0.14470  0.79420  0.00000  Biso   1.000  C 
  C74      1.0000 0.20580  0.85530  0.00000  Biso   1.000  C 
  C75      1.0000 0.17950  0.75800  0.00000  Biso   1.000  C 
  H41      1.0000 0.11140  0.78510  0.00000  Biso   1.000  H 
  C76      1.0000 0.24200  0.82050  0.00000  Biso   1.000  C 
  O65      1.0000 0.22031  0.90748  0.99962  Biso   1.000  O 
  C77      1.0000 0.23070  0.76930  0.00000  Biso   1.000  C 
  C78      1.0000 0.26930  0.73070  0.00000  Biso   1.000  C 
  H42      1.0000 0.16950  0.72490  0.00000  Biso   1.000  H 
  C79      1.0000 0.25800  0.67950  0.00000  Biso   1.000  C 
  H43      1.0000 0.27510  0.83050  0.00000  Biso   1.000  H 
  C80      1.0000 0.32050  0.74200  0.00000  Biso   1.000  C 
  C81      1.0000 0.29420  0.64470  0.00000  Biso   1.000  C 
  H44      1.0000 0.22490  0.66950  0.00000  Biso   1.000  H 
  C82      1.0000 0.35530  0.70580  0.00000  Biso   1.000  C 
  H45      1.0000 0.33050  0.77510  0.00000  Biso   1.000  H 
  C83      1.0000 0.34350  0.65650  0.00000  Biso   1.000  C 
  C84      1.0000 0.38280  0.61720  0.00000  Biso   1.000  C 
  O66      1.0000 0.27940  0.59270  0.00022  Biso   1.000  O 
  H46      1.0000 0.38860  0.71490  0.00000  Biso   1.000  H 
  O67      1.0000 0.36740  0.57190  0.00000  Biso   1.000  O 
  O68      1.0000 0.42810  0.63260  0.00000  Biso   1.000  O 
  H47      1.0000 0.27036  0.58526  0.03522  Biso   1.000  H 
  H48      1.0000 0.22369  0.91637  0.03535  Biso   1.000  H 
  O69      1.0000 0.92810  0.86740  0.00000  Biso   1.000  O 
  C85      1.0000 0.88280  0.88280  0.00000  Biso   1.000  C 
  O70      1.0000 0.86740  0.92810  0.00000  Biso   1.000  O 
  C86      1.0000 0.84350  0.84350  0.00000  Biso   1.000  C 
  C87      1.0000 0.85530  0.79420  0.00000  Biso   1.000  C 
  C88      1.0000 0.79420  0.85530  0.00000  Biso   1.000  C 
  C89      1.0000 0.82050  0.75800  0.00000  Biso   1.000  C 
  H49      1.0000 0.88860  0.78510  0.00000  Biso   1.000  H 
  C90      1.0000 0.75800  0.82050  0.00000  Biso   1.000  C 
  O71      1.0000 0.77968  0.90747  0.99962  Biso   1.000  O 
  C91      1.0000 0.76930  0.76930  0.00000  Biso   1.000  C 
  C92      1.0000 0.73070  0.73070  0.00000  Biso   1.000  C 
  H50      1.0000 0.83050  0.72490  0.00000  Biso   1.000  H 
  C93      1.0000 0.74200  0.67950  0.00000  Biso   1.000  C 
  H51      1.0000 0.72490  0.83050  0.00000  Biso   1.000  H 
  C94      1.0000 0.67950  0.74200  0.00000  Biso   1.000  C 
  C95      1.0000 0.70580  0.64470  0.00000  Biso   1.000  C 
  H52      1.0000 0.77510  0.66950  0.00000  Biso   1.000  H 
  C96      1.0000 0.64470  0.70580  0.00000  Biso   1.000  C 
  H53      1.0000 0.66950  0.77510  0.00000  Biso   1.000  H 
  C97      1.0000 0.65650  0.65650  0.00000  Biso   1.000  C 
  C98      1.0000 0.61720  0.61720  0.00000  Biso   1.000  C 
  O72      1.0000 0.72084  0.59269  0.00025  Biso   1.000  O 
  H54      1.0000 0.61140  0.71490  0.00000  Biso   1.000  H 
  O73      1.0000 0.63260  0.57190  0.00000  Biso   1.000  O 
  O74      1.0000 0.57190  0.63260  0.00000  Biso   1.000  O 
  H55      1.0000 0.73092  0.58604  0.03510  Biso   1.000  H 
  H56      1.0000 0.77635  0.91637  0.03535  Biso   1.000  H 
  O75      1.0000 0.92810  0.13260  0.00000  Biso   1.000  O 
  C99      1.0000 0.88280  0.11720  0.00000  Biso   1.000  C 
  O76      1.0000 0.86740  0.07190  0.00000  Biso   1.000  O 
  C100     1.0000 0.84350  0.15650  0.00000  Biso   1.000  C 
  C101     1.0000 0.85530  0.20580  0.00000  Biso   1.000  C 
  C102     1.0000 0.79420  0.14470  0.00000  Biso   1.000  C 
  C103     1.0000 0.82050  0.24200  0.00000  Biso   1.000  C 
  H57      1.0000 0.88860  0.21490  0.00000  Biso   1.000  H 
  C104     1.0000 0.75800  0.17950  0.00000  Biso   1.000  C 
  O77      1.0000 0.77967  0.09253  0.99962  Biso   1.000  O 
  C105     1.0000 0.76930  0.23070  0.00000  Biso   1.000  C 
  C106     1.0000 0.73070  0.26930  0.00000  Biso   1.000  C 
  H58      1.0000 0.83050  0.27510  0.00000  Biso   1.000  H 
  C107     1.0000 0.74200  0.32050  0.00000  Biso   1.000  C 
  H59      1.0000 0.72490  0.16950  0.00000  Biso   1.000  H 
  C108     1.0000 0.67950  0.25800  0.00000  Biso   1.000  C 
  C109     1.0000 0.70580  0.35530  0.00000  Biso   1.000  C 
  H60      1.0000 0.77510  0.33050  0.00000  Biso   1.000  H 
  C110     1.0000 0.64470  0.29420  0.00000  Biso   1.000  C 
  H61      1.0000 0.66950  0.22490  0.00000  Biso   1.000  H 
  C111     1.0000 0.65650  0.34350  0.00000  Biso   1.000  C 
  C112     1.0000 0.61720  0.38280  0.00000  Biso   1.000  C 
  O78      1.0000 0.72079  0.40731  0.00025  Biso   1.000  O 
  H62      1.0000 0.61140  0.28510  0.00000  Biso   1.000  H 
  O79      1.0000 0.63260  0.42810  0.00000  Biso   1.000  O 
  O80      1.0000 0.57190  0.36740  0.00000  Biso   1.000  O 
  H63      1.0000 0.73073  0.41408  0.03512  Biso   1.000  H 
  H64      1.0000 0.77641  0.08362  0.03535  Biso   1.000  H 
  O81      1.0000 0.00000  0.07190  0.13260  Biso   1.000  O 
  C113     1.0000 0.00000  0.11720  0.11720  Biso   1.000  C 
  O82      1.0000 0.00000  0.13260  0.07190  Biso   1.000  O 
  C114     1.0000 0.00000  0.15650  0.15650  Biso   1.000  C 
  C115     1.0000 0.00000  0.14470  0.20580  Biso   1.000  C 
  C116     1.0000 0.00000  0.20580  0.14470  Biso   1.000  C 
  C117     1.0000 0.00000  0.17950  0.24200  Biso   1.000  C 
  H65      1.0000 0.00000  0.11140  0.21490  Biso   1.000  H 
  C118     1.0000 0.00000  0.24200  0.17950  Biso   1.000  C 
  O83      1.0000 0.99962  0.22032  0.09253  Biso   1.000  O 
  C119     1.0000 0.00000  0.23070  0.23070  Biso   1.000  C 
  C120     1.0000 0.00000  0.26930  0.26930  Biso   1.000  C 
  H66      1.0000 0.00000  0.16950  0.27510  Biso   1.000  H 
  C121     1.0000 0.00000  0.25800  0.32050  Biso   1.000  C 
  H67      1.0000 0.00000  0.27510  0.16950  Biso   1.000  H 
  C122     1.0000 0.00000  0.32050  0.25800  Biso   1.000  C 
  C123     1.0000 0.00000  0.29420  0.35530  Biso   1.000  C 
  H68      1.0000 0.00000  0.22490  0.33050  Biso   1.000  H 
  C124     1.0000 0.00000  0.35530  0.29420  Biso   1.000  C 
  H69      1.0000 0.00000  0.33050  0.22490  Biso   1.000  H 
  C125     1.0000 0.00000  0.34350  0.34350  Biso   1.000  C 
  C126     1.0000 0.00000  0.38280  0.38280  Biso   1.000  C 
  O84      1.0000 0.00024  0.27929  0.40731  Biso   1.000  O 
  H70      1.0000 0.00000  0.38860  0.28510  Biso   1.000  H 
  O85      1.0000 0.00000  0.36740  0.42810  Biso   1.000  O 
  O86      1.0000 0.00000  0.42810  0.36740  Biso   1.000  O 
  H71      1.0000 0.03516  0.26973  0.41436  Biso   1.000  H 
  H72      1.0000 0.03535  0.22363  0.08363  Biso   1.000  H 
  O87      1.0000 0.00000  0.07190  0.86740  Biso   1.000  O 
  C127     1.0000 0.00000  0.11720  0.88280  Biso   1.000  C 
  O88      1.0000 0.00000  0.13260  0.92810  Biso   1.000  O 
  C128     1.0000 0.00000  0.15650  0.84350  Biso   1.000  C 
  C129     1.0000 0.00000  0.14470  0.79420  Biso   1.000  C 
  C130     1.0000 0.00000  0.20580  0.85530  Biso   1.000  C 
  C131     1.0000 0.00000  0.17950  0.75800  Biso   1.000  C 
  H73      1.0000 0.00000  0.11140  0.78510  Biso   1.000  H 
  C132     1.0000 0.00000  0.24200  0.82050  Biso   1.000  C 
  O89      1.0000 0.99962  0.22031  0.90748  Biso   1.000  O 
  C133     1.0000 0.00000  0.23070  0.76930  Biso   1.000  C 
  C134     1.0000 0.00000  0.26930  0.73070  Biso   1.000  C 
  H74      1.0000 0.00000  0.16950  0.72490  Biso   1.000  H 
  C135     1.0000 0.00000  0.25800  0.67950  Biso   1.000  C 
  H75      1.0000 0.00000  0.27510  0.83050  Biso   1.000  H 
  C136     1.0000 0.00000  0.32050  0.74200  Biso   1.000  C 
  C137     1.0000 0.00000  0.29420  0.64470  Biso   1.000  C 
  H76      1.0000 0.00000  0.22490  0.66950  Biso   1.000  H 
  C138     1.0000 0.00000  0.35530  0.70580  Biso   1.000  C 
  H77      1.0000 0.00000  0.33050  0.77510  Biso   1.000  H 
  C139     1.0000 0.00000  0.34350  0.65650  Biso   1.000  C 
  C140     1.0000 0.00000  0.38280  0.61720  Biso   1.000  C 
  O90      1.0000 0.00024  0.27931  0.59269  Biso   1.000  O 
  H78      1.0000 0.00000  0.38860  0.71490  Biso   1.000  H 
  O91      1.0000 0.00000  0.36740  0.57190  Biso   1.000  O 
  O92      1.0000 0.00000  0.42810  0.63260  Biso   1.000  O 
  H79      1.0000 0.03517  0.26982  0.58558  Biso   1.000  H 
  H80      1.0000 0.03535  0.22369  0.91637  Biso   1.000  H 
  O93      1.0000 0.00000  0.92810  0.86740  Biso   1.000  O 
  C141     1.0000 0.00000  0.88280  0.88280  Biso   1.000  C 
  O94      1.0000 0.00000  0.86740  0.92810  Biso   1.000  O 
  C142     1.0000 0.00000  0.84350  0.84350  Biso   1.000  C 
  C143     1.0000 0.00000  0.85530  0.79420  Biso   1.000  C 
  C144     1.0000 0.00000  0.79420  0.85530  Biso   1.000  C 
  C145     1.0000 0.00000  0.82050  0.75800  Biso   1.000  C 
  H81      1.0000 0.00000  0.88860  0.78510  Biso   1.000  H 
  C146     1.0000 0.00000  0.75800  0.82050  Biso   1.000  C 
  O95      1.0000 0.99962  0.77969  0.90748  Biso   1.000  O 
  C147     1.0000 0.00000  0.76930  0.76930  Biso   1.000  C 
  C148     1.0000 0.00000  0.73070  0.73070  Biso   1.000  C 
  H82      1.0000 0.00000  0.83050  0.72490  Biso   1.000  H 
  C149     1.0000 0.00000  0.74200  0.67950  Biso   1.000  C 
  H83      1.0000 0.00000  0.72490  0.83050  Biso   1.000  H 
  C150     1.0000 0.00000  0.67950  0.74200  Biso   1.000  C 
  C151     1.0000 0.00000  0.70580  0.64470  Biso   1.000  C 
  H84      1.0000 0.00000  0.77510  0.66950  Biso   1.000  H 
  C152     1.0000 0.00000  0.64470  0.70580  Biso   1.000  C 
  H85      1.0000 0.00000  0.66950  0.77510  Biso   1.000  H 
  C153     1.0000 0.00000  0.65650  0.65650  Biso   1.000  C 
  C154     1.0000 0.00000  0.61720  0.61720  Biso   1.000  C 
  O96      1.0000 0.00026  0.72084  0.59269  Biso   1.000  O 
  H86      1.0000 0.00000  0.61140  0.71490  Biso   1.000  H 
  O97      1.0000 0.00000  0.63260  0.57190  Biso   1.000  O 
  O98      1.0000 0.00000  0.57190  0.63260  Biso   1.000  O 
  H87      1.0000 0.03510  0.73095  0.58605  Biso   1.000  H 
  H88      1.0000 0.03535  0.77629  0.91636  Biso   1.000  H 
  O99      1.0000 0.00000  0.92810  0.13260  Biso   1.000  O 
  C155     1.0000 0.00000  0.88280  0.11720  Biso   1.000  C 
  O100     1.0000 0.00000  0.86740  0.07190  Biso   1.000  O 
  C156     1.0000 0.00000  0.84350  0.15650  Biso   1.000  C 
  C157     1.0000 0.00000  0.85530  0.20580  Biso   1.000  C 
  C158     1.0000 0.00000  0.79420  0.14470  Biso   1.000  C 
  C159     1.0000 0.00000  0.82050  0.24200  Biso   1.000  C 
  H89      1.0000 0.00000  0.88860  0.21490  Biso   1.000  H 
  C160     1.0000 0.00000  0.75800  0.17950  Biso   1.000  C 
  O101     1.0000 0.99962  0.77968  0.09253  Biso   1.000  O 
  C161     1.0000 0.00000  0.76930  0.23070  Biso   1.000  C 
  C162     1.0000 0.00000  0.73070  0.26930  Biso   1.000  C 
  H90      1.0000 0.00000  0.83050  0.27510  Biso   1.000  H 
  C163     1.0000 0.00000  0.74200  0.32050  Biso   1.000  C 
  H91      1.0000 0.00000  0.72490  0.16950  Biso   1.000  H 
  C164     1.0000 0.00000  0.67950  0.25800  Biso   1.000  C 
  C165     1.0000 0.00000  0.70580  0.35530  Biso   1.000  C 
  H92      1.0000 0.00000  0.77510  0.33050  Biso   1.000  H 
  C166     1.0000 0.00000  0.64470  0.29420  Biso   1.000  C 
  H93      1.0000 0.00000  0.66950  0.22490  Biso   1.000  H 
  C167     1.0000 0.00000  0.65650  0.34350  Biso   1.000  C 
  C168     1.0000 0.00000  0.61720  0.38280  Biso   1.000  C 
  O102     1.0000 0.00025  0.72079  0.40731  Biso   1.000  O 
  H94      1.0000 0.00000  0.61140  0.28510  Biso   1.000  H 
  O103     1.0000 0.00000  0.63260  0.42810  Biso   1.000  O 
  O104     1.0000 0.00000  0.57190  0.36740  Biso   1.000  O 
  H95      1.0000 0.03513  0.73070  0.41410  Biso   1.000  H 
  H96      1.0000 0.03535  0.77639  0.08362  Biso   1.000  H 
  O105     1.0000 0.13260  0.50000  0.57190  Biso   1.000  O 
  C169     1.0000 0.11720  0.50000  0.61720  Biso   1.000  C 
  O106     1.0000 0.07190  0.50000  0.63260  Biso   1.000  O 
  C170     1.0000 0.15650  0.50000  0.65650  Biso   1.000  C 
  C171     1.0000 0.20580  0.50000  0.64470  Biso   1.000  C 
  C172     1.0000 0.14470  0.50000  0.70580  Biso   1.000  C 
  C173     1.0000 0.24200  0.50000  0.67950  Biso   1.000  C 
  H97      1.0000 0.21490  0.50000  0.61140  Biso   1.000  H 
  C174     1.0000 0.17950  0.50000  0.74200  Biso   1.000  C 
  O107     1.0000 0.09251  0.50045  0.72067  Biso   1.000  O 
  C175     1.0000 0.23070  0.50000  0.73070  Biso   1.000  C 
  C176     1.0000 0.26930  0.50000  0.76930  Biso   1.000  C 
  H98      1.0000 0.27510  0.50000  0.66950  Biso   1.000  H 
  C177     1.0000 0.32050  0.50000  0.75800  Biso   1.000  C 
  H99      1.0000 0.16950  0.50000  0.77510  Biso   1.000  H 
  C178     1.0000 0.25800  0.50000  0.82050  Biso   1.000  C 
  C179     1.0000 0.35530  0.50000  0.79420  Biso   1.000  C 
  H100     1.0000 0.33050  0.50000  0.72490  Biso   1.000  H 
  C180     1.0000 0.29420  0.50000  0.85530  Biso   1.000  C 
  H101     1.0000 0.22490  0.50000  0.83050  Biso   1.000  H 
  C181     1.0000 0.34350  0.50000  0.84350  Biso   1.000  C 
  C182     1.0000 0.38280  0.50000  0.88280  Biso   1.000  C 
  O108     1.0000 0.40757  0.50003  0.78153  Biso   1.000  O 
  H102     1.0000 0.28510  0.50000  0.88860  Biso   1.000  H 
  O109     1.0000 0.42810  0.50000  0.86740  Biso   1.000  O 
  O110     1.0000 0.36740  0.50000  0.92810  Biso   1.000  O 
  H103     1.0000 0.41637  0.53429  0.77731  Biso   1.000  H 
  H104     1.0000 0.08758  0.53588  0.72837  Biso   1.000  H 
  O111     1.0000 0.86740  0.50000  0.57190  Biso   1.000  O 
  C183     1.0000 0.88280  0.50000  0.61720  Biso   1.000  C 
  O112     1.0000 0.92810  0.50000  0.63260  Biso   1.000  O 
  C184     1.0000 0.84350  0.50000  0.65650  Biso   1.000  C 
  C185     1.0000 0.79420  0.50000  0.64470  Biso   1.000  C 
  C186     1.0000 0.85530  0.50000  0.70580  Biso   1.000  C 
  C187     1.0000 0.75800  0.50000  0.67950  Biso   1.000  C 
  H105     1.0000 0.78510  0.50000  0.61140  Biso   1.000  H 
  C188     1.0000 0.82050  0.50000  0.74200  Biso   1.000  C 
  O113     1.0000 0.90730  0.50076  0.72180  Biso   1.000  O 
  C189     1.0000 0.76930  0.50000  0.73070  Biso   1.000  C 
  C190     1.0000 0.73070  0.50000  0.76930  Biso   1.000  C 
  H106     1.0000 0.72490  0.50000  0.66950  Biso   1.000  H 
  C191     1.0000 0.67950  0.50000  0.75800  Biso   1.000  C 
  H107     1.0000 0.83050  0.50000  0.77510  Biso   1.000  H 
  C192     1.0000 0.74200  0.50000  0.82050  Biso   1.000  C 
  C193     1.0000 0.64470  0.50000  0.79420  Biso   1.000  C 
  H108     1.0000 0.66950  0.50000  0.72490  Biso   1.000  H 
  C194     1.0000 0.70580  0.50000  0.85530  Biso   1.000  C 
  H109     1.0000 0.77510  0.50000  0.83050  Biso   1.000  H 
  C195     1.0000 0.65650  0.50000  0.84350  Biso   1.000  C 
  C196     1.0000 0.61720  0.50000  0.88280  Biso   1.000  C 
  O114     1.0000 0.59313  0.49950  0.78110  Biso   1.000  O 
  H110     1.0000 0.71490  0.50000  0.88860  Biso   1.000  H 
  O115     1.0000 0.57190  0.50000  0.86740  Biso   1.000  O 
  O116     1.0000 0.63260  0.50000  0.92810  Biso   1.000  O 
  H111     1.0000 0.58340  0.53606  0.78476  Biso   1.000  H 
  H112     1.0000 0.91740  0.53464  0.73241  Biso   1.000  H 
  O117     1.0000 0.86740  0.50000  0.42810  Biso   1.000  O 
  C197     1.0000 0.88280  0.50000  0.38280  Biso   1.000  C 
  O118     1.0000 0.92810  0.50000  0.36740  Biso   1.000  O 
  C198     1.0000 0.84350  0.50000  0.34350  Biso   1.000  C 
  C199     1.0000 0.79420  0.50000  0.35530  Biso   1.000  C 
  C200     1.0000 0.85530  0.50000  0.29420  Biso   1.000  C 
  C201     1.0000 0.75800  0.50000  0.32050  Biso   1.000  C 
  H113     1.0000 0.78510  0.50000  0.38860  Biso   1.000  H 
  C202     1.0000 0.82050  0.50000  0.25800  Biso   1.000  C 
  O119     1.0000 0.90738  0.49927  0.27852  Biso   1.000  O 
  C203     1.0000 0.76930  0.50000  0.26930  Biso   1.000  C 
  C204     1.0000 0.73070  0.50000  0.23070  Biso   1.000  C 
  H114     1.0000 0.72490  0.50000  0.33050  Biso   1.000  H 
  C205     1.0000 0.67950  0.50000  0.24200  Biso   1.000  C 
  H115     1.0000 0.83050  0.50000  0.22490  Biso   1.000  H 
  C206     1.0000 0.74200  0.50000  0.17950  Biso   1.000  C 
  C207     1.0000 0.64470  0.50000  0.20580  Biso   1.000  C 
  H116     1.0000 0.66950  0.50000  0.27510  Biso   1.000  H 
  C208     1.0000 0.70580  0.50000  0.14470  Biso   1.000  C 
  H117     1.0000 0.77510  0.50000  0.16950  Biso   1.000  H 
  C209     1.0000 0.65650  0.50000  0.15650  Biso   1.000  C 
  C210     1.0000 0.61720  0.50000  0.11720  Biso   1.000  C 
  O120     1.0000 0.59310  0.50040  0.21903  Biso   1.000  O 
  H118     1.0000 0.71490  0.50000  0.11140  Biso   1.000  H 
  O121     1.0000 0.57190  0.50000  0.13260  Biso   1.000  O 
  O122     1.0000 0.63260  0.50000  0.07190  Biso   1.000  O 
  H119     1.0000 0.58350  0.46559  0.21737  Biso   1.000  H 
  H120     1.0000 0.91711  0.46503  0.26835  Biso   1.000  H 
  O123     1.0000 0.13260  0.50000  0.42810  Biso   1.000  O 
  C211     1.0000 0.11720  0.50000  0.38280  Biso   1.000  C 
  O124     1.0000 0.07190  0.50000  0.36740  Biso   1.000  O 
  C212     1.0000 0.15650  0.50000  0.34350  Biso   1.000  C 
  C213     1.0000 0.20580  0.50000  0.35530  Biso   1.000  C 
  C214     1.0000 0.14470  0.50000  0.29420  Biso   1.000  C 
  C215     1.0000 0.24200  0.50000  0.32050  Biso   1.000  C 
  H121     1.0000 0.21490  0.50000  0.38860  Biso   1.000  H 
  C216     1.0000 0.17950  0.50000  0.25800  Biso   1.000  C 
  O125     1.0000 0.09338  0.49913  0.27977  Biso   1.000  O 
  C217     1.0000 0.23070  0.50000  0.26930  Biso   1.000  C 
  C218     1.0000 0.26930  0.50000  0.23070  Biso   1.000  C 
  H122     1.0000 0.27510  0.50000  0.33050  Biso   1.000  H 
  C219     1.0000 0.32050  0.50000  0.24200  Biso   1.000  C 
  H123     1.0000 0.16950  0.50000  0.22490  Biso   1.000  H 
  C220     1.0000 0.25800  0.50000  0.17950  Biso   1.000  C 
  C221     1.0000 0.35530  0.50000  0.20580  Biso   1.000  C 
  H124     1.0000 0.33050  0.50000  0.27510  Biso   1.000  H 
  C222     1.0000 0.29420  0.50000  0.14470  Biso   1.000  C 
  H125     1.0000 0.22490  0.50000  0.16950  Biso   1.000  H 
  C223     1.0000 0.34350  0.50000  0.15650  Biso   1.000  C 
  C224     1.0000 0.38280  0.50000  0.11720  Biso   1.000  C 
  O126     1.0000 0.40623  0.50050  0.22323  Biso   1.000  O 
  H126     1.0000 0.28510  0.50000  0.11140  Biso   1.000  H 
  O127     1.0000 0.42810  0.50000  0.13260  Biso   1.000  O 
  O128     1.0000 0.36740  0.50000  0.07190  Biso   1.000  O 
  H127     1.0000 0.40919  0.52866  0.24799  Biso   1.000  H 
  H128     1.0000 0.08251  0.46408  0.27657  Biso   1.000  H 
  O129     1.0000 0.07190  0.63260  0.50000  Biso   1.000  O 
  C225     1.0000 0.11720  0.61720  0.50000  Biso   1.000  C 
  O130     1.0000 0.13260  0.57190  0.50000  Biso   1.000  O 
  C226     1.0000 0.15650  0.65650  0.50000  Biso   1.000  C 
  C227     1.0000 0.14470  0.70580  0.50000  Biso   1.000  C 
  C228     1.0000 0.20580  0.64470  0.50000  Biso   1.000  C 
  C229     1.0000 0.17950  0.74200  0.50000  Biso   1.000  C 
  H129     1.0000 0.11140  0.71490  0.50000  Biso   1.000  H 
  C230     1.0000 0.24200  0.67950  0.50000  Biso   1.000  C 
  O131     1.0000 0.22275  0.59222  0.49990  Biso   1.000  O 
  C231     1.0000 0.23070  0.73070  0.50000  Biso   1.000  C 
  C232     1.0000 0.26930  0.76930  0.50000  Biso   1.000  C 
  H130     1.0000 0.16950  0.77510  0.50000  Biso   1.000  H 
  C233     1.0000 0.25800  0.82050  0.50000  Biso   1.000  C 
  H131     1.0000 0.27510  0.66950  0.50000  Biso   1.000  H 
  C234     1.0000 0.32050  0.75800  0.50000  Biso   1.000  C 
  C235     1.0000 0.29420  0.85530  0.50000  Biso   1.000  C 
  H132     1.0000 0.22490  0.83050  0.50000  Biso   1.000  H 
  C236     1.0000 0.35530  0.79420  0.50000  Biso   1.000  C 
  H133     1.0000 0.33050  0.72490  0.50000  Biso   1.000  H 
  C237     1.0000 0.34350  0.84350  0.50000  Biso   1.000  C 
  C238     1.0000 0.38280  0.88280  0.50000  Biso   1.000  C 
  O132     1.0000 0.27744  0.90686  0.49870  Biso   1.000  O 
  H134     1.0000 0.38860  0.78510  0.50000  Biso   1.000  H 
  O133     1.0000 0.36740  0.92810  0.50000  Biso   1.000  O 
  O134     1.0000 0.42810  0.86740  0.50000  Biso   1.000  O 
  H135     1.0000 0.25669  0.91081  0.53167  Biso   1.000  H 
  H136     1.0000 0.23158  0.58527  0.46434  Biso   1.000  H 
  O135     1.0000 0.07190  0.36740  0.50000  Biso   1.000  O 
  C239     1.0000 0.11720  0.38280  0.50000  Biso   1.000  C 
  O136     1.0000 0.13260  0.42810  0.50000  Biso   1.000  O 
  C240     1.0000 0.15650  0.34350  0.50000  Biso   1.000  C 
  C241     1.0000 0.14470  0.29420  0.50000  Biso   1.000  C 
  C242     1.0000 0.20580  0.35530  0.50000  Biso   1.000  C 
  C243     1.0000 0.17950  0.25800  0.50000  Biso   1.000  C 
  H137     1.0000 0.11140  0.28510  0.50000  Biso   1.000  H 
  C244     1.0000 0.24200  0.32050  0.50000  Biso   1.000  C 
  O137     1.0000 0.22124  0.40714  0.49974  Biso   1.000  O 
  C245     1.0000 0.23070  0.26930  0.50000  Biso   1.000  C 
  C246     1.0000 0.26930  0.23070  0.50000  Biso   1.000  C 
  H138     1.0000 0.16950  0.22490  0.50000  Biso   1.000  H 
  C247     1.0000 0.25800  0.17950  0.50000  Biso   1.000  C 
  H139     1.0000 0.27510  0.33050  0.50000  Biso   1.000  H 
  C248     1.0000 0.32050  0.24200  0.50000  Biso   1.000  C 
  C249     1.0000 0.29420  0.14470  0.50000  Biso   1.000  C 
  H140     1.0000 0.22490  0.16950  0.50000  Biso   1.000  H 
  C250     1.0000 0.35530  0.20580  0.50000  Biso   1.000  C 
  H141     1.0000 0.33050  0.27510  0.50000  Biso   1.000  H 
  C251     1.0000 0.34350  0.15650  0.50000  Biso   1.000  C 
  C252     1.0000 0.38280  0.11720  0.50000  Biso   1.000  C 
  O138     1.0000 0.27854  0.09194  0.49796  Biso   1.000  O 
  H142     1.0000 0.38860  0.21490  0.50000  Biso   1.000  H 
  O139     1.0000 0.36740  0.07190  0.50000  Biso   1.000  O 
  O140     1.0000 0.42810  0.13260  0.50000  Biso   1.000  O 
  H143     1.0000 0.27259  0.08541  0.53438  Biso   1.000  H 
  H144     1.0000 0.23079  0.41265  0.53505  Biso   1.000  H 
  O141     1.0000 0.92810  0.36740  0.50000  Biso   1.000  O 
  C253     1.0000 0.88280  0.38280  0.50000  Biso   1.000  C 
  O142     1.0000 0.86740  0.42810  0.50000  Biso   1.000  O 
  C254     1.0000 0.84350  0.34350  0.50000  Biso   1.000  C 
  C255     1.0000 0.85530  0.29420  0.50000  Biso   1.000  C 
  C256     1.0000 0.79420  0.35530  0.50000  Biso   1.000  C 
  C257     1.0000 0.82050  0.25800  0.50000  Biso   1.000  C 
  H145     1.0000 0.88860  0.28510  0.50000  Biso   1.000  H 
  C258     1.0000 0.75800  0.32050  0.50000  Biso   1.000  C 
  O143     1.0000 0.77925  0.40683  0.49975  Biso   1.000  O 
  C259     1.0000 0.76930  0.26930  0.50000  Biso   1.000  C 
  C260     1.0000 0.73070  0.23070  0.50000  Biso   1.000  C 
  H146     1.0000 0.83050  0.22490  0.50000  Biso   1.000  H 
  C261     1.0000 0.74200  0.17950  0.50000  Biso   1.000  C 
  H147     1.0000 0.72490  0.33050  0.50000  Biso   1.000  H 
  C262     1.0000 0.67950  0.24200  0.50000  Biso   1.000  C 
  C263     1.0000 0.70580  0.14470  0.50000  Biso   1.000  C 
  H148     1.0000 0.77510  0.16950  0.50000  Biso   1.000  H 
  C264     1.0000 0.64470  0.20580  0.50000  Biso   1.000  C 
  H149     1.0000 0.66950  0.27510  0.50000  Biso   1.000  H 
  C265     1.0000 0.65650  0.15650  0.50000  Biso   1.000  C 
  C266     1.0000 0.61720  0.11720  0.50000  Biso   1.000  C 
  O144     1.0000 0.71904  0.09228  0.49912  Biso   1.000  O 
  H150     1.0000 0.61140  0.21490  0.50000  Biso   1.000  H 
  O145     1.0000 0.63260  0.07190  0.50000  Biso   1.000  O 
  O146     1.0000 0.57190  0.13260  0.50000  Biso   1.000  O 
  H151     1.0000 0.71431  0.07736  0.53229  Biso   1.000  H 
  H152     1.0000 0.76555  0.41072  0.53396  Biso   1.000  H 
  O147     1.0000 0.92810  0.63260  0.50000  Biso   1.000  O 
  C267     1.0000 0.88280  0.61720  0.50000  Biso   1.000  C 
  O148     1.0000 0.86740  0.57190  0.50000  Biso   1.000  O 
  C268     1.0000 0.84350  0.65650  0.50000  Biso   1.000  C 
  C269     1.0000 0.85530  0.70580  0.50000  Biso   1.000  C 
  C270     1.0000 0.79420  0.64470  0.50000  Biso   1.000  C 
  C271     1.0000 0.82050  0.74200  0.50000  Biso   1.000  C 
  H153     1.0000 0.88860  0.71490  0.50000  Biso   1.000  H 
  C272     1.0000 0.75800  0.67950  0.50000  Biso   1.000  C 
  O149     1.0000 0.77932  0.59325  0.50020  Biso   1.000  O 
  C273     1.0000 0.76930  0.73070  0.50000  Biso   1.000  C 
  C274     1.0000 0.73070  0.76930  0.50000  Biso   1.000  C 
  H154     1.0000 0.83050  0.77510  0.50000  Biso   1.000  H 
  C275     1.0000 0.74200  0.82050  0.50000  Biso   1.000  C 
  H155     1.0000 0.72490  0.66950  0.50000  Biso   1.000  H 
  C276     1.0000 0.67950  0.75800  0.50000  Biso   1.000  C 
  C277     1.0000 0.70580  0.85530  0.50000  Biso   1.000  C 
  H156     1.0000 0.77510  0.83050  0.50000  Biso   1.000  H 
  C278     1.0000 0.64470  0.79420  0.50000  Biso   1.000  C 
  H157     1.0000 0.66950  0.72490  0.50000  Biso   1.000  H 
  C279     1.0000 0.65650  0.84350  0.50000  Biso   1.000  C 
  C280     1.0000 0.61720  0.88280  0.50000  Biso   1.000  C 
  O150     1.0000 0.72180  0.90789  0.49795  Biso   1.000  O 
  H158     1.0000 0.61140  0.78510  0.50000  Biso   1.000  H 
  O151     1.0000 0.63260  0.92810  0.50000  Biso   1.000  O 
  O152     1.0000 0.57190  0.86740  0.50000  Biso   1.000  O 
  H159     1.0000 0.73169  0.91311  0.53410  Biso   1.000  H 
  H160     1.0000 0.76471  0.58923  0.46649  Biso   1.000  H 
  O153     1.0000 0.50000  0.07190  0.63260  Biso   1.000  O 
  C281     1.0000 0.50000  0.11720  0.61720  Biso   1.000  C 
  O154     1.0000 0.50000  0.13260  0.57190  Biso   1.000  O 
  C282     1.0000 0.50000  0.15650  0.65650  Biso   1.000  C 
  C283     1.0000 0.50000  0.14470  0.70580  Biso   1.000  C 
  C284     1.0000 0.50000  0.20580  0.64470  Biso   1.000  C 
  C285     1.0000 0.50000  0.17950  0.74200  Biso   1.000  C 
  H161     1.0000 0.50000  0.11140  0.71490  Biso   1.000  H 
  C286     1.0000 0.50000  0.24200  0.67950  Biso   1.000  C 
  O155     1.0000 0.50003  0.21978  0.59292  Biso   1.000  O 
  C287     1.0000 0.50000  0.23070  0.73070  Biso   1.000  C 
  C288     1.0000 0.50000  0.26930  0.76930  Biso   1.000  C 
  H162     1.0000 0.50000  0.16950  0.77510  Biso   1.000  H 
  C289     1.0000 0.50000  0.25800  0.82050  Biso   1.000  C 
  H163     1.0000 0.50000  0.27510  0.66950  Biso   1.000  H 
  C290     1.0000 0.50000  0.32050  0.75800  Biso   1.000  C 
  C291     1.0000 0.50000  0.29420  0.85530  Biso   1.000  C 
  H164     1.0000 0.50000  0.22490  0.83050  Biso   1.000  H 
  C292     1.0000 0.50000  0.35530  0.79420  Biso   1.000  C 
  H165     1.0000 0.50000  0.33050  0.72490  Biso   1.000  H 
  C293     1.0000 0.50000  0.34350  0.84350  Biso   1.000  C 
  C294     1.0000 0.50000  0.38280  0.88280  Biso   1.000  C 
  O156     1.0000 0.50178  0.27977  0.90798  Biso   1.000  O 
  H166     1.0000 0.50000  0.38860  0.78510  Biso   1.000  H 
  O157     1.0000 0.50000  0.36740  0.92810  Biso   1.000  O 
  O158     1.0000 0.50000  0.42810  0.86740  Biso   1.000  O 
  H167     1.0000 0.46835  0.28597  0.91957  Biso   1.000  H 
  H168     1.0000 0.46913  0.23903  0.58908  Biso   1.000  H 
  O159     1.0000 0.50000  0.07190  0.36740  Biso   1.000  O 
  C295     1.0000 0.50000  0.11720  0.38280  Biso   1.000  C 
  O160     1.0000 0.50000  0.13260  0.42810  Biso   1.000  O 
  C296     1.0000 0.50000  0.15650  0.34350  Biso   1.000  C 
  C297     1.0000 0.50000  0.14470  0.29420  Biso   1.000  C 
  C298     1.0000 0.50000  0.20580  0.35530  Biso   1.000  C 
  C299     1.0000 0.50000  0.17950  0.25800  Biso   1.000  C 
  H169     1.0000 0.50000  0.11140  0.28510  Biso   1.000  H 
  C300     1.0000 0.50000  0.24200  0.32050  Biso   1.000  C 
  O161     1.0000 0.50011  0.22038  0.40674  Biso   1.000  O 
  C301     1.0000 0.50000  0.23070  0.26930  Biso   1.000  C 
  C302     1.0000 0.50000  0.26930  0.23070  Biso   1.000  C 
  H170     1.0000 0.50000  0.16950  0.22490  Biso   1.000  H 
  C303     1.0000 0.50000  0.25800  0.17950  Biso   1.000  C 
  H171     1.0000 0.50000  0.27510  0.33050  Biso   1.000  H 
  C304     1.0000 0.50000  0.32050  0.24200  Biso   1.000  C 
  C305     1.0000 0.50000  0.29420  0.14470  Biso   1.000  C 
  H172     1.0000 0.50000  0.22490  0.16950  Biso   1.000  H 
  C306     1.0000 0.50000  0.35530  0.20580  Biso   1.000  C 
  H173     1.0000 0.50000  0.33050  0.27510  Biso   1.000  H 
  C307     1.0000 0.50000  0.34350  0.15650  Biso   1.000  C 
  C308     1.0000 0.50000  0.38280  0.11720  Biso   1.000  C 
  O162     1.0000 0.50109  0.28083  0.09229  Biso   1.000  O 
  H174     1.0000 0.50000  0.38860  0.21490  Biso   1.000  H 
  O163     1.0000 0.50000  0.36740  0.07190  Biso   1.000  O 
  O164     1.0000 0.50000  0.42810  0.13260  Biso   1.000  O 
  H175     1.0000 0.46753  0.28605  0.07746  Biso   1.000  H 
  H176     1.0000 0.46769  0.23717  0.41099  Biso   1.000  H 
  O165     1.0000 0.50000  0.92810  0.36740  Biso   1.000  O 
  C309     1.0000 0.50000  0.88280  0.38280  Biso   1.000  C 
  O166     1.0000 0.50000  0.86740  0.42810  Biso   1.000  O 
  C310     1.0000 0.50000  0.84350  0.34350  Biso   1.000  C 
  C311     1.0000 0.50000  0.85530  0.29420  Biso   1.000  C 
  C312     1.0000 0.50000  0.79420  0.35530  Biso   1.000  C 
  C313     1.0000 0.50000  0.82050  0.25800  Biso   1.000  C 
  H177     1.0000 0.50000  0.88860  0.28510  Biso   1.000  H 
  C314     1.0000 0.50000  0.75800  0.32050  Biso   1.000  C 
  O167     1.0000 0.50005  0.77998  0.40692  Biso   1.000  O 
  C315     1.0000 0.50000  0.76930  0.26930  Biso   1.000  C 
  C316     1.0000 0.50000  0.73070  0.23070  Biso   1.000  C 
  H178     1.0000 0.50000  0.83050  0.22490  Biso   1.000  H 
  C317     1.0000 0.50000  0.74200  0.17950  Biso   1.000  C 
  H179     1.0000 0.50000  0.72490  0.33050  Biso   1.000  H 
  C318     1.0000 0.50000  0.67950  0.24200  Biso   1.000  C 
  C319     1.0000 0.50000  0.70580  0.14470  Biso   1.000  C 
  H180     1.0000 0.50000  0.77510  0.16950  Biso   1.000  H 
  C320     1.0000 0.50000  0.64470  0.20580  Biso   1.000  C 
  H181     1.0000 0.50000  0.66950  0.27510  Biso   1.000  H 
  C321     1.0000 0.50000  0.65650  0.15650  Biso   1.000  C 
  C322     1.0000 0.50000  0.61720  0.11720  Biso   1.000  C 
  O168     1.0000 0.50083  0.71952  0.09194  Biso   1.000  O 
  H182     1.0000 0.50000  0.61140  0.21490  Biso   1.000  H 
  O169     1.0000 0.50000  0.63260  0.07190  Biso   1.000  O 
  O170     1.0000 0.50000  0.57190  0.13260  Biso   1.000  O 
  H183     1.0000 0.46490  0.71773  0.08148  Biso   1.000  H 
  H184     1.0000 0.46865  0.76151  0.41098  Biso   1.000  H 
  O171     1.0000 0.50000  0.92810  0.63260  Biso   1.000  O 
  C323     1.0000 0.50000  0.88280  0.61720  Biso   1.000  C 
  O172     1.0000 0.50000  0.86740  0.57190  Biso   1.000  O 
  C324     1.0000 0.50000  0.84350  0.65650  Biso   1.000  C 
  C325     1.0000 0.50000  0.85530  0.70580  Biso   1.000  C 
  C326     1.0000 0.50000  0.79420  0.64470  Biso   1.000  C 
  C327     1.0000 0.50000  0.82050  0.74200  Biso   1.000  C 
  H185     1.0000 0.50000  0.88860  0.71490  Biso   1.000  H 
  C328     1.0000 0.50000  0.75800  0.67950  Biso   1.000  C 
  O173     1.0000 0.50003  0.78081  0.59250  Biso   1.000  O 
  C329     1.0000 0.50000  0.76930  0.73070  Biso   1.000  C 
  C330     1.0000 0.50000  0.73070  0.76930  Biso   1.000  C 
  H186     1.0000 0.50000  0.83050  0.77510  Biso   1.000  H 
  C331     1.0000 0.50000  0.74200  0.82050  Biso   1.000  C 
  H187     1.0000 0.50000  0.72490  0.66950  Biso   1.000  H 
  C332     1.0000 0.50000  0.67950  0.75800  Biso   1.000  C 
  C333     1.0000 0.50000  0.70580  0.85530  Biso   1.000  C 
  H188     1.0000 0.50000  0.77510  0.83050  Biso   1.000  H 
  C334     1.0000 0.50000  0.64470  0.79420  Biso   1.000  C 
  H189     1.0000 0.50000  0.66950  0.72490  Biso   1.000  H 
  C335     1.0000 0.50000  0.65650  0.84350  Biso   1.000  C 
  C336     1.0000 0.50000  0.61720  0.88280  Biso   1.000  C 
  O174     1.0000 0.50175  0.71995  0.90786  Biso   1.000  O 
  H190     1.0000 0.50000  0.61140  0.78510  Biso   1.000  H 
  O175     1.0000 0.50000  0.63260  0.92810  Biso   1.000  O 
  O176     1.0000 0.50000  0.57190  0.86740  Biso   1.000  O 
  H191     1.0000 0.46805  0.70934  0.92250  Biso   1.000  H 
  H192     1.0000 0.47021  0.75957  0.58912  Biso   1.000  H 
