data_image0
_cell_length_a       26.896
_cell_length_b       26.896
_cell_length_c       26.896
_cell_angle_alpha    90
_cell_angle_beta     90
_cell_angle_gamma    90

_symmetry_space_group_name_H-M    "P 1"
_symmetry_int_tables_number       1

loop_
  _symmetry_equiv_pos_as_xyz
  'x, y, z'

loop_
  _atom_site_label
  _atom_site_occupancy
  _atom_site_fract_x
  _atom_site_fract_y
  _atom_site_fract_z
  _atom_site_thermal_displace_type
  _atom_site_B_iso_or_equiv
  _atom_site_type_symbol
  Zr1      1.0000 0.09204  0.00000  0.00000  Biso   1.000  Zr
  Zr2      1.0000 0.90796  0.00000  0.00000  Biso   1.000  Zr
  Zr3      1.0000 0.00000  0.09204  0.00000  Biso   1.000  Zr
  Zr4      1.0000 0.00000  0.90796  0.00000  Biso   1.000  Zr
  Zr5      1.0000 0.00000  0.00000  0.09204  Biso   1.000  Zr
  Zr6      1.0000 0.00000  0.00000  0.90796  Biso   1.000  Zr
  Zr7      1.0000 0.09204  0.50000  0.50000  Biso   1.000  Zr
  Zr8      1.0000 0.90796  0.50000  0.50000  Biso   1.000  Zr
  Zr9      1.0000 0.00000  0.59204  0.50000  Biso   1.000  Zr
  Zr10     1.0000 0.00000  0.40796  0.50000  Biso   1.000  Zr
  Zr11     1.0000 0.00000  0.50000  0.59204  Biso   1.000  Zr
  Zr12     1.0000 0.00000  0.50000  0.40796  Biso   1.000  Zr
  Zr13     1.0000 0.59204  0.00000  0.50000  Biso   1.000  Zr
  Zr14     1.0000 0.40796  0.00000  0.50000  Biso   1.000  Zr
  Zr15     1.0000 0.50000  0.09204  0.50000  Biso   1.000  Zr
  Zr16     1.0000 0.50000  0.90796  0.50000  Biso   1.000  Zr
  Zr17     1.0000 0.50000  0.00000  0.59204  Biso   1.000  Zr
  Zr18     1.0000 0.50000  0.00000  0.40796  Biso   1.000  Zr
  Zr19     1.0000 0.59204  0.50000  0.00000  Biso   1.000  Zr
  Zr20     1.0000 0.40796  0.50000  0.00000  Biso   1.000  Zr
  Zr21     1.0000 0.50000  0.59204  0.00000  Biso   1.000  Zr
  Zr22     1.0000 0.50000  0.40796  0.00000  Biso   1.000  Zr
  Zr23     1.0000 0.50000  0.50000  0.09204  Biso   1.000  Zr
  Zr24     1.0000 0.50000  0.50000  0.90796  Biso   1.000  Zr
  O1       1.0000 0.04540  0.04540  0.04540  Biso   1.000  O 
  O2       1.0000 0.95460  0.95460  0.04540  Biso   1.000  O 
  O3       1.0000 0.95460  0.04540  0.95460  Biso   1.000  O 
  O4       1.0000 0.04540  0.95460  0.95460  Biso   1.000  O 
  O5       1.0000 0.04540  0.04540  0.95460  Biso   1.000  O 
  O6       1.0000 0.95460  0.95460  0.95460  Biso   1.000  O 
  O7       1.0000 0.04540  0.95460  0.04540  Biso   1.000  O 
  O8       1.0000 0.95460  0.04540  0.04540  Biso   1.000  O 
  O9       1.0000 0.04540  0.54540  0.54540  Biso   1.000  O 
  O10      1.0000 0.95460  0.45460  0.54540  Biso   1.000  O 
  O11      1.0000 0.95460  0.54540  0.45460  Biso   1.000  O 
  O12      1.0000 0.04540  0.45460  0.45460  Biso   1.000  O 
  O13      1.0000 0.04540  0.54540  0.45460  Biso   1.000  O 
  O14      1.0000 0.95460  0.45460  0.45460  Biso   1.000  O 
  O15      1.0000 0.04540  0.45460  0.54540  Biso   1.000  O 
  O16      1.0000 0.95460  0.54540  0.54540  Biso   1.000  O 
  O17      1.0000 0.54540  0.04540  0.54540  Biso   1.000  O 
  O18      1.0000 0.45460  0.95460  0.54540  Biso   1.000  O 
  O19      1.0000 0.45460  0.04540  0.45460  Biso   1.000  O 
  O20      1.0000 0.54540  0.95460  0.45460  Biso   1.000  O 
  O21      1.0000 0.54540  0.04540  0.45460  Biso   1.000  O 
  O22      1.0000 0.45460  0.95460  0.45460  Biso   1.000  O 
  O23      1.0000 0.54540  0.95460  0.54540  Biso   1.000  O 
  O24      1.0000 0.45460  0.04540  0.54540  Biso   1.000  O 
  O25      1.0000 0.54540  0.54540  0.04540  Biso   1.000  O 
  O26      1.0000 0.45460  0.45460  0.04540  Biso   1.000  O 
  O27      1.0000 0.45460  0.54540  0.95460  Biso   1.000  O 
  O28      1.0000 0.54540  0.45460  0.95460  Biso   1.000  O 
  O29      1.0000 0.54540  0.54540  0.95460  Biso   1.000  O 
  O30      1.0000 0.45460  0.45460  0.95460  Biso   1.000  O 
  O31      1.0000 0.54540  0.45460  0.04540  Biso   1.000  O 
  O32      1.0000 0.45460  0.54540  0.04540  Biso   1.000  O 
  O33      1.0000 0.13260  0.00000  0.07190  Biso   1.000  O 
  C1       1.0000 0.11720  0.00000  0.11720  Biso   1.000  C 
  O34      1.0000 0.07190  0.00000  0.13260  Biso   1.000  O 
  C2       1.0000 0.15650  0.00000  0.15650  Biso   1.000  C 
  C3       1.0000 0.20580  0.00000  0.14470  Biso   1.000  C 
  C4       1.0000 0.14470  0.00000  0.20580  Biso   1.000  C 
  C5       1.0000 0.24200  0.00000  0.17950  Biso   1.000  C 
  H1       1.0000 0.21490  0.00000  0.11140  Biso   1.000  H 
  C6       1.0000 0.17950  0.00000  0.24200  Biso   1.000  C 
  H2       1.0000 0.11140  0.00000  0.21490  Biso   1.000  H 
  C7       1.0000 0.23070  0.00000  0.23070  Biso   1.000  C 
  C8       1.0000 0.26930  0.00000  0.26930  Biso   1.000  C 
  H3       1.0000 0.27510  0.00000  0.16950  Biso   1.000  H 
  C9       1.0000 0.32050  0.00000  0.25800  Biso   1.000  C 
  N1       1.0000 0.15882  0.00493  0.29394  Biso   1.000  N 
  C10      1.0000 0.25800  0.00000  0.32050  Biso   1.000  C 
  C11      1.0000 0.35530  0.00000  0.29420  Biso   1.000  C 
  N2       1.0000 0.34111  0.00539  0.20571  Biso   1.000  N 
  C12      1.0000 0.29420  0.00000  0.35530  Biso   1.000  C 
  H4       1.0000 0.22490  0.00000  0.33050  Biso   1.000  H 
  C13      1.0000 0.34350  0.00000  0.34350  Biso   1.000  C 
  C14      1.0000 0.38280  0.00000  0.38280  Biso   1.000  C 
  H5       1.0000 0.38860  0.00000  0.28510  Biso   1.000  H 
  H6       1.0000 0.28510  0.00000  0.38860  Biso   1.000  H 
  O35      1.0000 0.42810  0.00000  0.36740  Biso   1.000  O 
  O36      1.0000 0.36740  0.00000  0.42810  Biso   1.000  O 
  H7       1.0000 0.36460  0.03645  0.20400  Biso   1.000  H 
  H8       1.0000 0.36306  0.97433  0.19776  Biso   1.000  H 
  H9       1.0000 0.13732  0.97327  0.30059  Biso   1.000  H 
  H10      1.0000 0.13412  0.03483  0.29667  Biso   1.000  H 
  O37      1.0000 0.86740  0.00000  0.07190  Biso   1.000  O 
  C15      1.0000 0.88280  0.00000  0.11720  Biso   1.000  C 
  O38      1.0000 0.92810  0.00000  0.13260  Biso   1.000  O 
  C16      1.0000 0.84350  0.00000  0.15650  Biso   1.000  C 
  C17      1.0000 0.79420  0.00000  0.14470  Biso   1.000  C 
  C18      1.0000 0.85530  0.00000  0.20580  Biso   1.000  C 
  C19      1.0000 0.75800  0.00000  0.17950  Biso   1.000  C 
  H11      1.0000 0.78510  0.00000  0.11140  Biso   1.000  H 
  C20      1.0000 0.82050  0.00000  0.24200  Biso   1.000  C 
  H12      1.0000 0.88860  0.00000  0.21490  Biso   1.000  H 
  C21      1.0000 0.76930  0.00000  0.23070  Biso   1.000  C 
  C22      1.0000 0.73070  0.00000  0.26930  Biso   1.000  C 
  H13      1.0000 0.72490  0.00000  0.16950  Biso   1.000  H 
  C23      1.0000 0.67950  0.00000  0.25800  Biso   1.000  C 
  N3       1.0000 0.84118  0.00495  0.29393  Biso   1.000  N 
  C24      1.0000 0.74200  0.00000  0.32050  Biso   1.000  C 
  C25      1.0000 0.64470  0.00000  0.29420  Biso   1.000  C 
  N4       1.0000 0.65889  0.00526  0.20573  Biso   1.000  N 
  C26      1.0000 0.70580  0.00000  0.35530  Biso   1.000  C 
  H14      1.0000 0.77510  0.00000  0.33050  Biso   1.000  H 
  C27      1.0000 0.65650  0.00000  0.34350  Biso   1.000  C 
  C28      1.0000 0.61720  0.00000  0.38280  Biso   1.000  C 
  H15      1.0000 0.61140  0.00000  0.28510  Biso   1.000  H 
  H16      1.0000 0.71490  0.00000  0.38860  Biso   1.000  H 
  O39      1.0000 0.57190  0.00000  0.36740  Biso   1.000  O 
  O40      1.0000 0.63260  0.00000  0.42810  Biso   1.000  O 
  H17      1.0000 0.63530  0.03621  0.20387  Biso   1.000  H 
  H18      1.0000 0.63695  0.97417  0.19790  Biso   1.000  H 
  H19      1.0000 0.86268  0.97327  0.30053  Biso   1.000  H 
  H20      1.0000 0.86591  0.03484  0.29666  Biso   1.000  H 
  O41      1.0000 0.86740  0.00000  0.92810  Biso   1.000  O 
  C29      1.0000 0.88280  0.00000  0.88280  Biso   1.000  C 
  O42      1.0000 0.92810  0.00000  0.86740  Biso   1.000  O 
  C30      1.0000 0.84350  0.00000  0.84350  Biso   1.000  C 
  C31      1.0000 0.79420  0.00000  0.85530  Biso   1.000  C 
  C32      1.0000 0.85530  0.00000  0.79420  Biso   1.000  C 
  C33      1.0000 0.75800  0.00000  0.82050  Biso   1.000  C 
  H21      1.0000 0.78510  0.00000  0.88860  Biso   1.000  H 
  C34      1.0000 0.82050  0.00000  0.75800  Biso   1.000  C 
  H22      1.0000 0.88860  0.00000  0.78510  Biso   1.000  H 
  C35      1.0000 0.76930  0.00000  0.76930  Biso   1.000  C 
  C36      1.0000 0.73070  0.00000  0.73070  Biso   1.000  C 
  H23      1.0000 0.72490  0.00000  0.83050  Biso   1.000  H 
  C37      1.0000 0.67950  0.00000  0.74200  Biso   1.000  C 
  N5       1.0000 0.84118  0.00492  0.70606  Biso   1.000  N 
  C38      1.0000 0.74200  0.00000  0.67950  Biso   1.000  C 
  C39      1.0000 0.64470  0.00000  0.70580  Biso   1.000  C 
  N6       1.0000 0.65889  0.00532  0.79426  Biso   1.000  N 
  C40      1.0000 0.70580  0.00000  0.64470  Biso   1.000  C 
  H24      1.0000 0.77510  0.00000  0.66950  Biso   1.000  H 
  C41      1.0000 0.65650  0.00000  0.65650  Biso   1.000  C 
  C42      1.0000 0.61720  0.00000  0.61720  Biso   1.000  C 
  H25      1.0000 0.61140  0.00000  0.71490  Biso   1.000  H 
  H26      1.0000 0.71490  0.00000  0.61140  Biso   1.000  H 
  O43      1.0000 0.57190  0.00000  0.63260  Biso   1.000  O 
  O44      1.0000 0.63260  0.00000  0.57190  Biso   1.000  O 
  H27      1.0000 0.63530  0.03627  0.79611  Biso   1.000  H 
  H28      1.0000 0.63694  0.97424  0.80211  Biso   1.000  H 
  H29      1.0000 0.86267  0.97323  0.69947  Biso   1.000  H 
  H30      1.0000 0.86591  0.03481  0.70333  Biso   1.000  H 
  O45      1.0000 0.13260  0.00000  0.92810  Biso   1.000  O 
  C43      1.0000 0.11720  0.00000  0.88280  Biso   1.000  C 
  O46      1.0000 0.07190  0.00000  0.86740  Biso   1.000  O 
  C44      1.0000 0.15650  0.00000  0.84350  Biso   1.000  C 
  C45      1.0000 0.20580  0.00000  0.85530  Biso   1.000  C 
  C46      1.0000 0.14470  0.00000  0.79420  Biso   1.000  C 
  C47      1.0000 0.24200  0.00000  0.82050  Biso   1.000  C 
  H31      1.0000 0.21490  0.00000  0.88860  Biso   1.000  H 
  C48      1.0000 0.17950  0.00000  0.75800  Biso   1.000  C 
  H32      1.0000 0.11140  0.00000  0.78510  Biso   1.000  H 
  C49      1.0000 0.23070  0.00000  0.76930  Biso   1.000  C 
  C50      1.0000 0.26930  0.00000  0.73070  Biso   1.000  C 
  H33      1.0000 0.27510  0.00000  0.83050  Biso   1.000  H 
  C51      1.0000 0.32050  0.00000  0.74200  Biso   1.000  C 
  N7       1.0000 0.15882  0.00490  0.70605  Biso   1.000  N 
  C52      1.0000 0.25800  0.00000  0.67950  Biso   1.000  C 
  C53      1.0000 0.35530  0.00000  0.70580  Biso   1.000  C 
  N8       1.0000 0.34111  0.00533  0.79429  Biso   1.000  N 
  C54      1.0000 0.29420  0.00000  0.64470  Biso   1.000  C 
  H34      1.0000 0.22490  0.00000  0.66950  Biso   1.000  H 
  C55      1.0000 0.34350  0.00000  0.65650  Biso   1.000  C 
  C56      1.0000 0.38280  0.00000  0.61720  Biso   1.000  C 
  H35      1.0000 0.38860  0.00000  0.71490  Biso   1.000  H 
  H36      1.0000 0.28510  0.00000  0.61140  Biso   1.000  H 
  O47      1.0000 0.42810  0.00000  0.63260  Biso   1.000  O 
  O48      1.0000 0.36740  0.00000  0.57190  Biso   1.000  O 
  H37      1.0000 0.36460  0.03640  0.79601  Biso   1.000  H 
  H38      1.0000 0.36305  0.97426  0.80222  Biso   1.000  H 
  H39      1.0000 0.13733  0.97323  0.69942  Biso   1.000  H 
  H40      1.0000 0.13410  0.03479  0.70332  Biso   1.000  H 
  O49      1.0000 0.07190  0.13260  0.00000  Biso   1.000  O 
  C57      1.0000 0.11720  0.11720  0.00000  Biso   1.000  C 
  O50      1.0000 0.13260  0.07190  0.00000  Biso   1.000  O 
  C58      1.0000 0.15650  0.15650  0.00000  Biso   1.000  C 
  C59      1.0000 0.14470  0.20580  0.00000  Biso   1.000  C 
  C60      1.0000 0.20580  0.14470  0.00000  Biso   1.000  C 
  C61      1.0000 0.17950  0.24200  0.00000  Biso   1.000  C 
  H41      1.0000 0.11140  0.21490  0.00000  Biso   1.000  H 
  C62      1.0000 0.24200  0.17950  0.00000  Biso   1.000  C 
  H42      1.0000 0.21490  0.11140  0.00000  Biso   1.000  H 
  C63      1.0000 0.23070  0.23070  0.00000  Biso   1.000  C 
  C64      1.0000 0.26930  0.26930  0.00000  Biso   1.000  C 
  H43      1.0000 0.16950  0.27510  0.00000  Biso   1.000  H 
  C65      1.0000 0.25800  0.32050  0.00000  Biso   1.000  C 
  N9       1.0000 0.29422  0.15889  0.00523  Biso   1.000  N 
  C66      1.0000 0.32050  0.25800  0.00000  Biso   1.000  C 
  C67      1.0000 0.29420  0.35530  0.00000  Biso   1.000  C 
  N10      1.0000 0.20541  0.34120  0.99457  Biso   1.000  N 
  C68      1.0000 0.35530  0.29420  0.00000  Biso   1.000  C 
  H44      1.0000 0.33050  0.22490  0.00000  Biso   1.000  H 
  C69      1.0000 0.34350  0.34350  0.00000  Biso   1.000  C 
  C70      1.0000 0.38280  0.38280  0.00000  Biso   1.000  C 
  H45      1.0000 0.28510  0.38860  0.00000  Biso   1.000  H 
  H46      1.0000 0.38860  0.28510  0.00000  Biso   1.000  H 
  O51      1.0000 0.36740  0.42810  0.00000  Biso   1.000  O 
  O52      1.0000 0.42810  0.36740  0.00000  Biso   1.000  O 
  H47      1.0000 0.20575  0.36261  0.96208  Biso   1.000  H 
  H48      1.0000 0.19683  0.36329  0.02549  Biso   1.000  H 
  H49      1.0000 0.30191  0.13698  0.97411  Biso   1.000  H 
  H50      1.0000 0.29629  0.13510  0.03596  Biso   1.000  H 
  O53      1.0000 0.07190  0.86740  0.00000  Biso   1.000  O 
  C71      1.0000 0.11720  0.88280  0.00000  Biso   1.000  C 
  O54      1.0000 0.13260  0.92810  0.00000  Biso   1.000  O 
  C72      1.0000 0.15650  0.84350  0.00000  Biso   1.000  C 
  C73      1.0000 0.14470  0.79420  0.00000  Biso   1.000  C 
  C74      1.0000 0.20580  0.85530  0.00000  Biso   1.000  C 
  C75      1.0000 0.17950  0.75800  0.00000  Biso   1.000  C 
  H51      1.0000 0.11140  0.78510  0.00000  Biso   1.000  H 
  C76      1.0000 0.24200  0.82050  0.00000  Biso   1.000  C 
  H52      1.0000 0.21490  0.88860  0.00000  Biso   1.000  H 
  C77      1.0000 0.23070  0.76930  0.00000  Biso   1.000  C 
  C78      1.0000 0.26930  0.73070  0.00000  Biso   1.000  C 
  H53      1.0000 0.16950  0.72490  0.00000  Biso   1.000  H 
  C79      1.0000 0.25800  0.67950  0.00000  Biso   1.000  C 
  N11      1.0000 0.29416  0.84113  0.00506  Biso   1.000  N 
  C80      1.0000 0.32050  0.74200  0.00000  Biso   1.000  C 
  C81      1.0000 0.29420  0.64470  0.00000  Biso   1.000  C 
  N12      1.0000 0.20546  0.65884  0.99456  Biso   1.000  N 
  C82      1.0000 0.35530  0.70580  0.00000  Biso   1.000  C 
  H54      1.0000 0.33050  0.77510  0.00000  Biso   1.000  H 
  C83      1.0000 0.34350  0.65650  0.00000  Biso   1.000  C 
  C84      1.0000 0.38280  0.61720  0.00000  Biso   1.000  C 
  H55      1.0000 0.28510  0.61140  0.00000  Biso   1.000  H 
  H56      1.0000 0.38860  0.71490  0.00000  Biso   1.000  H 
  O55      1.0000 0.36740  0.57190  0.00000  Biso   1.000  O 
  O56      1.0000 0.42810  0.63260  0.00000  Biso   1.000  O 
  H57      1.0000 0.20532  0.63683  0.96235  Biso   1.000  H 
  H58      1.0000 0.19699  0.63685  0.02558  Biso   1.000  H 
  H59      1.0000 0.30157  0.86295  0.97383  Biso   1.000  H 
  H60      1.0000 0.29651  0.86518  0.03547  Biso   1.000  H 
  O57      1.0000 0.92810  0.86740  0.00000  Biso   1.000  O 
  C85      1.0000 0.88280  0.88280  0.00000  Biso   1.000  C 
  O58      1.0000 0.86740  0.92810  0.00000  Biso   1.000  O 
  C86      1.0000 0.84350  0.84350  0.00000  Biso   1.000  C 
  C87      1.0000 0.85530  0.79420  0.00000  Biso   1.000  C 
  C88      1.0000 0.79420  0.85530  0.00000  Biso   1.000  C 
  C89      1.0000 0.82050  0.75800  0.00000  Biso   1.000  C 
  H61      1.0000 0.88860  0.78510  0.00000  Biso   1.000  H 
  C90      1.0000 0.75800  0.82050  0.00000  Biso   1.000  C 
  H62      1.0000 0.78510  0.88860  0.00000  Biso   1.000  H 
  C91      1.0000 0.76930  0.76930  0.00000  Biso   1.000  C 
  C92      1.0000 0.73070  0.73070  0.00000  Biso   1.000  C 
  H63      1.0000 0.83050  0.72490  0.00000  Biso   1.000  H 
  C93      1.0000 0.74200  0.67950  0.00000  Biso   1.000  C 
  N13      1.0000 0.70586  0.84112  0.00516  Biso   1.000  N 
  C94      1.0000 0.67950  0.74200  0.00000  Biso   1.000  C 
  C95      1.0000 0.70580  0.64470  0.00000  Biso   1.000  C 
  N14      1.0000 0.79453  0.65885  0.99456  Biso   1.000  N 
  C96      1.0000 0.64470  0.70580  0.00000  Biso   1.000  C 
  H64      1.0000 0.66950  0.77510  0.00000  Biso   1.000  H 
  C97      1.0000 0.65650  0.65650  0.00000  Biso   1.000  C 
  C98      1.0000 0.61720  0.61720  0.00000  Biso   1.000  C 
  H65      1.0000 0.71490  0.61140  0.00000  Biso   1.000  H 
  H66      1.0000 0.61140  0.71490  0.00000  Biso   1.000  H 
  O59      1.0000 0.63260  0.57190  0.00000  Biso   1.000  O 
  O60      1.0000 0.57190  0.63260  0.00000  Biso   1.000  O 
  H67      1.0000 0.79478  0.63671  0.96243  Biso   1.000  H 
  H68      1.0000 0.80297  0.63688  0.02560  Biso   1.000  H 
  H69      1.0000 0.69841  0.86296  0.97396  Biso   1.000  H 
  H70      1.0000 0.70353  0.86517  0.03558  Biso   1.000  H 
  O61      1.0000 0.92810  0.13260  0.00000  Biso   1.000  O 
  C99      1.0000 0.88280  0.11720  0.00000  Biso   1.000  C 
  O62      1.0000 0.86740  0.07190  0.00000  Biso   1.000  O 
  C100     1.0000 0.84350  0.15650  0.00000  Biso   1.000  C 
  C101     1.0000 0.85530  0.20580  0.00000  Biso   1.000  C 
  C102     1.0000 0.79420  0.14470  0.00000  Biso   1.000  C 
  C103     1.0000 0.82050  0.24200  0.00000  Biso   1.000  C 
  H71      1.0000 0.88860  0.21490  0.00000  Biso   1.000  H 
  C104     1.0000 0.75800  0.17950  0.00000  Biso   1.000  C 
  H72      1.0000 0.78510  0.11140  0.00000  Biso   1.000  H 
  C105     1.0000 0.76930  0.23070  0.00000  Biso   1.000  C 
  C106     1.0000 0.73070  0.26930  0.00000  Biso   1.000  C 
  H73      1.0000 0.83050  0.27510  0.00000  Biso   1.000  H 
  C107     1.0000 0.74200  0.32050  0.00000  Biso   1.000  C 
  N15      1.0000 0.70580  0.15888  0.00518  Biso   1.000  N 
  C108     1.0000 0.67950  0.25800  0.00000  Biso   1.000  C 
  C109     1.0000 0.70580  0.35530  0.00000  Biso   1.000  C 
  N16      1.0000 0.79458  0.34119  0.99457  Biso   1.000  N 
  C110     1.0000 0.64470  0.29420  0.00000  Biso   1.000  C 
  H74      1.0000 0.66950  0.22490  0.00000  Biso   1.000  H 
  C111     1.0000 0.65650  0.34350  0.00000  Biso   1.000  C 
  C112     1.0000 0.61720  0.38280  0.00000  Biso   1.000  C 
  H75      1.0000 0.71490  0.38860  0.00000  Biso   1.000  H 
  H76      1.0000 0.61140  0.28510  0.00000  Biso   1.000  H 
  O63      1.0000 0.63260  0.42810  0.00000  Biso   1.000  O 
  O64      1.0000 0.57190  0.36740  0.00000  Biso   1.000  O 
  H77      1.0000 0.79429  0.36268  0.96211  Biso   1.000  H 
  H78      1.0000 0.80316  0.36326  0.02551  Biso   1.000  H 
  H79      1.0000 0.69822  0.13701  0.97402  Biso   1.000  H 
  H80      1.0000 0.70363  0.13499  0.03578  Biso   1.000  H 
  O65      1.0000 0.00000  0.07190  0.13260  Biso   1.000  O 
  C113     1.0000 0.00000  0.11720  0.11720  Biso   1.000  C 
  O66      1.0000 0.00000  0.13260  0.07190  Biso   1.000  O 
  C114     1.0000 0.00000  0.15650  0.15650  Biso   1.000  C 
  C115     1.0000 0.00000  0.14470  0.20580  Biso   1.000  C 
  C116     1.0000 0.00000  0.20580  0.14470  Biso   1.000  C 
  C117     1.0000 0.00000  0.17950  0.24200  Biso   1.000  C 
  H81      1.0000 0.00000  0.11140  0.21490  Biso   1.000  H 
  C118     1.0000 0.00000  0.24200  0.17950  Biso   1.000  C 
  H82      1.0000 0.00000  0.21490  0.11140  Biso   1.000  H 
  C119     1.0000 0.00000  0.23070  0.23070  Biso   1.000  C 
  C120     1.0000 0.00000  0.26930  0.26930  Biso   1.000  C 
  H83      1.0000 0.00000  0.16950  0.27510  Biso   1.000  H 
  C121     1.0000 0.00000  0.25800  0.32050  Biso   1.000  C 
  N17      1.0000 0.00543  0.29455  0.15883  Biso   1.000  N 
  C122     1.0000 0.00000  0.32050  0.25800  Biso   1.000  C 
  C123     1.0000 0.00000  0.29420  0.35530  Biso   1.000  C 
  N18      1.0000 0.99439  0.20556  0.34124  Biso   1.000  N 
  C124     1.0000 0.00000  0.35530  0.29420  Biso   1.000  C 
  H84      1.0000 0.00000  0.33050  0.22490  Biso   1.000  H 
  C125     1.0000 0.00000  0.34350  0.34350  Biso   1.000  C 
  C126     1.0000 0.00000  0.38280  0.38280  Biso   1.000  C 
  H85      1.0000 0.00000  0.28510  0.38860  Biso   1.000  H 
  H86      1.0000 0.00000  0.38860  0.28510  Biso   1.000  H 
  O67      1.0000 0.00000  0.36740  0.42810  Biso   1.000  O 
  O68      1.0000 0.00000  0.42810  0.36740  Biso   1.000  O 
  H87      1.0000 0.96094  0.20506  0.36127  Biso   1.000  H 
  H88      1.0000 0.02397  0.19737  0.36543  Biso   1.000  H 
  H89      1.0000 0.97442  0.30304  0.13684  Biso   1.000  H 
  H90      1.0000 0.03768  0.29460  0.13692  Biso   1.000  H 
  O69      1.0000 0.00000  0.07190  0.86740  Biso   1.000  O 
  C127     1.0000 0.00000  0.11720  0.88280  Biso   1.000  C 
  O70      1.0000 0.00000  0.13260  0.92810  Biso   1.000  O 
  C128     1.0000 0.00000  0.15650  0.84350  Biso   1.000  C 
  C129     1.0000 0.00000  0.14470  0.79420  Biso   1.000  C 
  C130     1.0000 0.00000  0.20580  0.85530  Biso   1.000  C 
  C131     1.0000 0.00000  0.17950  0.75800  Biso   1.000  C 
  H91      1.0000 0.00000  0.11140  0.78510  Biso   1.000  H 
  C132     1.0000 0.00000  0.24200  0.82050  Biso   1.000  C 
  H92      1.0000 0.00000  0.21490  0.88860  Biso   1.000  H 
  C133     1.0000 0.00000  0.23070  0.76930  Biso   1.000  C 
  C134     1.0000 0.00000  0.26930  0.73070  Biso   1.000  C 
  H93      1.0000 0.00000  0.16950  0.72490  Biso   1.000  H 
  C135     1.0000 0.00000  0.25800  0.67950  Biso   1.000  C 
  N19      1.0000 0.00543  0.29459  0.84120  Biso   1.000  N 
  C136     1.0000 0.00000  0.32050  0.74200  Biso   1.000  C 
  C137     1.0000 0.00000  0.29420  0.64470  Biso   1.000  C 
  N20      1.0000 0.99456  0.20549  0.65875  Biso   1.000  N 
  C138     1.0000 0.00000  0.35530  0.70580  Biso   1.000  C 
  H94      1.0000 0.00000  0.33050  0.77510  Biso   1.000  H 
  C139     1.0000 0.00000  0.34350  0.65650  Biso   1.000  C 
  C140     1.0000 0.00000  0.38280  0.61720  Biso   1.000  C 
  H95      1.0000 0.00000  0.28510  0.61140  Biso   1.000  H 
  H96      1.0000 0.00000  0.38860  0.71490  Biso   1.000  H 
  O71      1.0000 0.00000  0.36740  0.57190  Biso   1.000  O 
  O72      1.0000 0.00000  0.42810  0.63260  Biso   1.000  O 
  H97      1.0000 0.96123  0.20558  0.63859  Biso   1.000  H 
  H98      1.0000 0.02451  0.19708  0.63514  Biso   1.000  H 
  H99      1.0000 0.97451  0.30317  0.86330  Biso   1.000  H 
  H100     1.0000 0.03793  0.29424  0.86259  Biso   1.000  H 
  O73      1.0000 0.00000  0.92810  0.86740  Biso   1.000  O 
  C141     1.0000 0.00000  0.88280  0.88280  Biso   1.000  C 
  O74      1.0000 0.00000  0.86740  0.92810  Biso   1.000  O 
  C142     1.0000 0.00000  0.84350  0.84350  Biso   1.000  C 
  C143     1.0000 0.00000  0.85530  0.79420  Biso   1.000  C 
  C144     1.0000 0.00000  0.79420  0.85530  Biso   1.000  C 
  C145     1.0000 0.00000  0.82050  0.75800  Biso   1.000  C 
  H101     1.0000 0.00000  0.88860  0.78510  Biso   1.000  H 
  C146     1.0000 0.00000  0.75800  0.82050  Biso   1.000  C 
  H102     1.0000 0.00000  0.78510  0.88860  Biso   1.000  H 
  C147     1.0000 0.00000  0.76930  0.76930  Biso   1.000  C 
  C148     1.0000 0.00000  0.73070  0.73070  Biso   1.000  C 
  H103     1.0000 0.00000  0.83050  0.72490  Biso   1.000  H 
  C149     1.0000 0.00000  0.74200  0.67950  Biso   1.000  C 
  N21      1.0000 0.00543  0.70540  0.84121  Biso   1.000  N 
  C150     1.0000 0.00000  0.67950  0.74200  Biso   1.000  C 
  C151     1.0000 0.00000  0.70580  0.64470  Biso   1.000  C 
  N22      1.0000 0.99534  0.79422  0.65876  Biso   1.000  N 
  C152     1.0000 0.00000  0.64470  0.70580  Biso   1.000  C 
  H104     1.0000 0.00000  0.66950  0.77510  Biso   1.000  H 
  C153     1.0000 0.00000  0.65650  0.65650  Biso   1.000  C 
  C154     1.0000 0.00000  0.61720  0.61720  Biso   1.000  C 
  H105     1.0000 0.00000  0.71490  0.61140  Biso   1.000  H 
  H106     1.0000 0.00000  0.61140  0.71490  Biso   1.000  H 
  O75      1.0000 0.00000  0.63260  0.57190  Biso   1.000  O 
  O76      1.0000 0.00000  0.57190  0.63260  Biso   1.000  O 
  H107     1.0000 0.96182  0.79880  0.63981  Biso   1.000  H 
  H108     1.0000 0.02347  0.79997  0.63254  Biso   1.000  H 
  H109     1.0000 0.97459  0.69678  0.86341  Biso   1.000  H 
  H110     1.0000 0.03806  0.70592  0.86234  Biso   1.000  H 
  O77      1.0000 0.00000  0.92810  0.13260  Biso   1.000  O 
  C155     1.0000 0.00000  0.88280  0.11720  Biso   1.000  C 
  O78      1.0000 0.00000  0.86740  0.07190  Biso   1.000  O 
  C156     1.0000 0.00000  0.84350  0.15650  Biso   1.000  C 
  C157     1.0000 0.00000  0.85530  0.20580  Biso   1.000  C 
  C158     1.0000 0.00000  0.79420  0.14470  Biso   1.000  C 
  C159     1.0000 0.00000  0.82050  0.24200  Biso   1.000  C 
  H111     1.0000 0.00000  0.88860  0.21490  Biso   1.000  H 
  C160     1.0000 0.00000  0.75800  0.17950  Biso   1.000  C 
  H112     1.0000 0.00000  0.78510  0.11140  Biso   1.000  H 
  C161     1.0000 0.00000  0.76930  0.23070  Biso   1.000  C 
  C162     1.0000 0.00000  0.73070  0.26930  Biso   1.000  C 
  H113     1.0000 0.00000  0.83050  0.27510  Biso   1.000  H 
  C163     1.0000 0.00000  0.74200  0.32050  Biso   1.000  C 
  N23      1.0000 0.00544  0.70543  0.15882  Biso   1.000  N 
  C164     1.0000 0.00000  0.67950  0.25800  Biso   1.000  C 
  C165     1.0000 0.00000  0.70580  0.35530  Biso   1.000  C 
  N24      1.0000 0.99581  0.79417  0.34122  Biso   1.000  N 
  C166     1.0000 0.00000  0.64470  0.29420  Biso   1.000  C 
  H114     1.0000 0.00000  0.66950  0.22490  Biso   1.000  H 
  C167     1.0000 0.00000  0.65650  0.34350  Biso   1.000  C 
  C168     1.0000 0.00000  0.61720  0.38280  Biso   1.000  C 
  H115     1.0000 0.00000  0.71490  0.38860  Biso   1.000  H 
  H116     1.0000 0.00000  0.61140  0.28510  Biso   1.000  H 
  O79      1.0000 0.00000  0.63260  0.42810  Biso   1.000  O 
  O80      1.0000 0.00000  0.57190  0.36740  Biso   1.000  O 
  H117     1.0000 0.96234  0.79985  0.35988  Biso   1.000  H 
  H118     1.0000 0.02371  0.79920  0.36772  Biso   1.000  H 
  H119     1.0000 0.97446  0.69689  0.13679  Biso   1.000  H 
  H120     1.0000 0.03780  0.70558  0.13715  Biso   1.000  H 
  O81      1.0000 0.13260  0.50000  0.57190  Biso   1.000  O 
  C169     1.0000 0.11720  0.50000  0.61720  Biso   1.000  C 
  O82      1.0000 0.07190  0.50000  0.63260  Biso   1.000  O 
  C170     1.0000 0.15650  0.50000  0.65650  Biso   1.000  C 
  C171     1.0000 0.20580  0.50000  0.64470  Biso   1.000  C 
  C172     1.0000 0.14470  0.50000  0.70580  Biso   1.000  C 
  C173     1.0000 0.24200  0.50000  0.67950  Biso   1.000  C 
  H121     1.0000 0.21490  0.50000  0.61140  Biso   1.000  H 
  C174     1.0000 0.17950  0.50000  0.74200  Biso   1.000  C 
  H122     1.0000 0.11140  0.50000  0.71490  Biso   1.000  H 
  C175     1.0000 0.23070  0.50000  0.73070  Biso   1.000  C 
  C176     1.0000 0.26930  0.50000  0.76930  Biso   1.000  C 
  H123     1.0000 0.27510  0.50000  0.66950  Biso   1.000  H 
  C177     1.0000 0.32050  0.50000  0.75800  Biso   1.000  C 
  N25      1.0000 0.15881  0.50549  0.79416  Biso   1.000  N 
  C178     1.0000 0.25800  0.50000  0.82050  Biso   1.000  C 
  C179     1.0000 0.35530  0.50000  0.79420  Biso   1.000  C 
  N26      1.0000 0.34403  0.50889  0.70529  Biso   1.000  N 
  C180     1.0000 0.29420  0.50000  0.85530  Biso   1.000  C 
  H124     1.0000 0.22490  0.50000  0.83050  Biso   1.000  H 
  C181     1.0000 0.34350  0.50000  0.84350  Biso   1.000  C 
  C182     1.0000 0.38280  0.50000  0.88280  Biso   1.000  C 
  H125     1.0000 0.38860  0.50000  0.78510  Biso   1.000  H 
  H126     1.0000 0.28510  0.50000  0.88860  Biso   1.000  H 
  O83      1.0000 0.42810  0.50000  0.86740  Biso   1.000  O 
  O84      1.0000 0.36740  0.50000  0.92810  Biso   1.000  O 
  H127     1.0000 0.34061  0.54590  0.69053  Biso   1.000  H 
  H128     1.0000 0.38056  0.49411  0.70086  Biso   1.000  H 
  H129     1.0000 0.14479  0.47163  0.80815  Biso   1.000  H 
  H130     1.0000 0.13040  0.53225  0.79399  Biso   1.000  H 
  O85      1.0000 0.86740  0.50000  0.57190  Biso   1.000  O 
  C183     1.0000 0.88280  0.50000  0.61720  Biso   1.000  C 
  O86      1.0000 0.92810  0.50000  0.63260  Biso   1.000  O 
  C184     1.0000 0.84350  0.50000  0.65650  Biso   1.000  C 
  C185     1.0000 0.79420  0.50000  0.64470  Biso   1.000  C 
  C186     1.0000 0.85530  0.50000  0.70580  Biso   1.000  C 
  C187     1.0000 0.75800  0.50000  0.67950  Biso   1.000  C 
  H131     1.0000 0.78510  0.50000  0.61140  Biso   1.000  H 
  C188     1.0000 0.82050  0.50000  0.74200  Biso   1.000  C 
  H132     1.0000 0.88860  0.50000  0.71490  Biso   1.000  H 
  C189     1.0000 0.76930  0.50000  0.73070  Biso   1.000  C 
  C190     1.0000 0.73070  0.50000  0.76930  Biso   1.000  C 
  H133     1.0000 0.72490  0.50000  0.66950  Biso   1.000  H 
  C191     1.0000 0.67950  0.50000  0.75800  Biso   1.000  C 
  N27      1.0000 0.84143  0.49992  0.79316  Biso   1.000  N 
  C192     1.0000 0.74200  0.50000  0.82050  Biso   1.000  C 
  C193     1.0000 0.64470  0.50000  0.79420  Biso   1.000  C 
  N28      1.0000 0.65634  0.50669  0.70332  Biso   1.000  N 
  C194     1.0000 0.70580  0.50000  0.85530  Biso   1.000  C 
  H134     1.0000 0.77510  0.50000  0.83050  Biso   1.000  H 
  C195     1.0000 0.65650  0.50000  0.84350  Biso   1.000  C 
  C196     1.0000 0.61720  0.50000  0.88280  Biso   1.000  C 
  H135     1.0000 0.61140  0.50000  0.78510  Biso   1.000  H 
  H136     1.0000 0.71490  0.50000  0.88860  Biso   1.000  H 
  O87      1.0000 0.57190  0.50000  0.86740  Biso   1.000  O 
  O88      1.0000 0.63260  0.50000  0.92810  Biso   1.000  O 
  H137     1.0000 0.65651  0.54262  0.69056  Biso   1.000  H 
  H138     1.0000 0.62155  0.48958  0.69938  Biso   1.000  H 
  H139     1.0000 0.85996  0.46652  0.79946  Biso   1.000  H 
  H140     1.0000 0.86768  0.52889  0.79371  Biso   1.000  H 
  O89      1.0000 0.86740  0.50000  0.42810  Biso   1.000  O 
  C197     1.0000 0.88280  0.50000  0.38280  Biso   1.000  C 
  O90      1.0000 0.92810  0.50000  0.36740  Biso   1.000  O 
  C198     1.0000 0.84350  0.50000  0.34350  Biso   1.000  C 
  C199     1.0000 0.79420  0.50000  0.35530  Biso   1.000  C 
  C200     1.0000 0.85530  0.50000  0.29420  Biso   1.000  C 
  C201     1.0000 0.75800  0.50000  0.32050  Biso   1.000  C 
  H141     1.0000 0.78510  0.50000  0.38860  Biso   1.000  H 
  C202     1.0000 0.82050  0.50000  0.25800  Biso   1.000  C 
  H142     1.0000 0.88860  0.50000  0.28510  Biso   1.000  H 
  C203     1.0000 0.76930  0.50000  0.26930  Biso   1.000  C 
  C204     1.0000 0.73070  0.50000  0.23070  Biso   1.000  C 
  H143     1.0000 0.72490  0.50000  0.33050  Biso   1.000  H 
  C205     1.0000 0.67950  0.50000  0.24200  Biso   1.000  C 
  N29      1.0000 0.84132  0.49898  0.20593  Biso   1.000  N 
  C206     1.0000 0.74200  0.50000  0.17950  Biso   1.000  C 
  C207     1.0000 0.64470  0.50000  0.20580  Biso   1.000  C 
  N30      1.0000 0.65852  0.49399  0.29322  Biso   1.000  N 
  C208     1.0000 0.70580  0.50000  0.14470  Biso   1.000  C 
  H144     1.0000 0.77510  0.50000  0.16950  Biso   1.000  H 
  C209     1.0000 0.65650  0.50000  0.15650  Biso   1.000  C 
  C210     1.0000 0.61720  0.50000  0.11720  Biso   1.000  C 
  H145     1.0000 0.61140  0.50000  0.21490  Biso   1.000  H 
  H146     1.0000 0.71490  0.50000  0.11140  Biso   1.000  H 
  O91      1.0000 0.57190  0.50000  0.13260  Biso   1.000  O 
  O92      1.0000 0.63260  0.50000  0.07190  Biso   1.000  O 
  H147     1.0000 0.63074  0.46556  0.29676  Biso   1.000  H 
  H148     1.0000 0.65436  0.52856  0.31023  Biso   1.000  H 
  H149     1.0000 0.86482  0.52935  0.19800  Biso   1.000  H 
  H150     1.0000 0.86465  0.46847  0.20030  Biso   1.000  H 
  O93      1.0000 0.13260  0.50000  0.42810  Biso   1.000  O 
  C211     1.0000 0.11720  0.50000  0.38280  Biso   1.000  C 
  O94      1.0000 0.07190  0.50000  0.36740  Biso   1.000  O 
  C212     1.0000 0.15650  0.50000  0.34350  Biso   1.000  C 
  C213     1.0000 0.20580  0.50000  0.35530  Biso   1.000  C 
  C214     1.0000 0.14470  0.50000  0.29420  Biso   1.000  C 
  C215     1.0000 0.24200  0.50000  0.32050  Biso   1.000  C 
  H151     1.0000 0.21490  0.50000  0.38860  Biso   1.000  H 
  C216     1.0000 0.17950  0.50000  0.25800  Biso   1.000  C 
  H152     1.0000 0.11140  0.50000  0.28510  Biso   1.000  H 
  C217     1.0000 0.23070  0.50000  0.26930  Biso   1.000  C 
  C218     1.0000 0.26930  0.50000  0.23070  Biso   1.000  C 
  H153     1.0000 0.27510  0.50000  0.33050  Biso   1.000  H 
  C219     1.0000 0.32050  0.50000  0.24200  Biso   1.000  C 
  N31      1.0000 0.15895  0.50587  0.20695  Biso   1.000  N 
  C220     1.0000 0.25800  0.50000  0.17950  Biso   1.000  C 
  C221     1.0000 0.35530  0.50000  0.20580  Biso   1.000  C 
  N32      1.0000 0.34152  0.49156  0.29376  Biso   1.000  N 
  C222     1.0000 0.29420  0.50000  0.14470  Biso   1.000  C 
  H154     1.0000 0.22490  0.50000  0.16950  Biso   1.000  H 
  C223     1.0000 0.34350  0.50000  0.15650  Biso   1.000  C 
  C224     1.0000 0.38280  0.50000  0.11720  Biso   1.000  C 
  H155     1.0000 0.38860  0.50000  0.21490  Biso   1.000  H 
  H156     1.0000 0.28510  0.50000  0.11140  Biso   1.000  H 
  O95      1.0000 0.42810  0.50000  0.13260  Biso   1.000  O 
  O96      1.0000 0.36740  0.50000  0.07190  Biso   1.000  O 
  H157     1.0000 0.36991  0.46534  0.29488  Biso   1.000  H 
  H158     1.0000 0.34601  0.52510  0.31171  Biso   1.000  H 
  H159     1.0000 0.14359  0.54126  0.20387  Biso   1.000  H 
  H160     1.0000 0.13140  0.47797  0.20302  Biso   1.000  H 
  O97      1.0000 0.07190  0.63260  0.50000  Biso   1.000  O 
  C225     1.0000 0.11720  0.61720  0.50000  Biso   1.000  C 
  O98      1.0000 0.13260  0.57190  0.50000  Biso   1.000  O 
  C226     1.0000 0.15650  0.65650  0.50000  Biso   1.000  C 
  C227     1.0000 0.14470  0.70580  0.50000  Biso   1.000  C 
  C228     1.0000 0.20580  0.64470  0.50000  Biso   1.000  C 
  C229     1.0000 0.17950  0.74200  0.50000  Biso   1.000  C 
  H161     1.0000 0.11140  0.71490  0.50000  Biso   1.000  H 
  C230     1.0000 0.24200  0.67950  0.50000  Biso   1.000  C 
  H162     1.0000 0.21490  0.61140  0.50000  Biso   1.000  H 
  C231     1.0000 0.23070  0.73070  0.50000  Biso   1.000  C 
  C232     1.0000 0.26930  0.76930  0.50000  Biso   1.000  C 
  H163     1.0000 0.16950  0.77510  0.50000  Biso   1.000  H 
  C233     1.0000 0.25800  0.82050  0.50000  Biso   1.000  C 
  N33      1.0000 0.29203  0.66094  0.52102  Biso   1.000  N 
  C234     1.0000 0.32050  0.75800  0.50000  Biso   1.000  C 
  C235     1.0000 0.29420  0.85530  0.50000  Biso   1.000  C 
  N34      1.0000 0.20647  0.84111  0.50993  Biso   1.000  N 
  C236     1.0000 0.35530  0.79420  0.50000  Biso   1.000  C 
  H164     1.0000 0.33050  0.72490  0.50000  Biso   1.000  H 
  C237     1.0000 0.34350  0.84350  0.50000  Biso   1.000  C 
  C238     1.0000 0.38280  0.88280  0.50000  Biso   1.000  C 
  H165     1.0000 0.28510  0.88860  0.50000  Biso   1.000  H 
  H166     1.0000 0.38860  0.78510  0.50000  Biso   1.000  H 
  O99      1.0000 0.36740  0.92810  0.50000  Biso   1.000  O 
  O100     1.0000 0.42810  0.86740  0.50000  Biso   1.000  O 
  H167     1.0000 0.19329  0.86686  0.48411  Biso   1.000  H 
  H168     1.0000 0.20348  0.86071  0.54345  Biso   1.000  H 
  H169     1.0000 0.30607  0.64211  0.48888  Biso   1.000  H 
  H170     1.0000 0.30212  0.65417  0.55683  Biso   1.000  H 
  O101     1.0000 0.07190  0.36740  0.50000  Biso   1.000  O 
  C239     1.0000 0.11720  0.38280  0.50000  Biso   1.000  C 
  O102     1.0000 0.13260  0.42810  0.50000  Biso   1.000  O 
  C240     1.0000 0.15650  0.34350  0.50000  Biso   1.000  C 
  C241     1.0000 0.14470  0.29420  0.50000  Biso   1.000  C 
  C242     1.0000 0.20580  0.35530  0.50000  Biso   1.000  C 
  C243     1.0000 0.17950  0.25800  0.50000  Biso   1.000  C 
  H171     1.0000 0.11140  0.28510  0.50000  Biso   1.000  H 
  C244     1.0000 0.24200  0.32050  0.50000  Biso   1.000  C 
  H172     1.0000 0.21490  0.38860  0.50000  Biso   1.000  H 
  C245     1.0000 0.23070  0.26930  0.50000  Biso   1.000  C 
  C246     1.0000 0.26930  0.23070  0.50000  Biso   1.000  C 
  H173     1.0000 0.16950  0.22490  0.50000  Biso   1.000  H 
  C247     1.0000 0.25800  0.17950  0.50000  Biso   1.000  C 
  N35      1.0000 0.29185  0.34146  0.51391  Biso   1.000  N 
  C248     1.0000 0.32050  0.24200  0.50000  Biso   1.000  C 
  C249     1.0000 0.29420  0.14470  0.50000  Biso   1.000  C 
  N36      1.0000 0.20696  0.16019  0.50974  Biso   1.000  N 
  C250     1.0000 0.35530  0.20580  0.50000  Biso   1.000  C 
  H174     1.0000 0.33050  0.27510  0.50000  Biso   1.000  H 
  C251     1.0000 0.34350  0.15650  0.50000  Biso   1.000  C 
  C252     1.0000 0.38280  0.11720  0.50000  Biso   1.000  C 
  H175     1.0000 0.28510  0.11140  0.50000  Biso   1.000  H 
  H176     1.0000 0.38860  0.21490  0.50000  Biso   1.000  H 
  O103     1.0000 0.36740  0.07190  0.50000  Biso   1.000  O 
  O104     1.0000 0.42810  0.13260  0.50000  Biso   1.000  O 
  H177     1.0000 0.19438  0.13643  0.48224  Biso   1.000  H 
  H178     1.0000 0.20912  0.13518  0.53889  Biso   1.000  H 
  H179     1.0000 0.29196  0.37530  0.53498  Biso   1.000  H 
  H180     1.0000 0.30890  0.34626  0.47709  Biso   1.000  H 
  O105     1.0000 0.92810  0.36740  0.50000  Biso   1.000  O 
  C253     1.0000 0.88280  0.38280  0.50000  Biso   1.000  C 
  O106     1.0000 0.86740  0.42810  0.50000  Biso   1.000  O 
  C254     1.0000 0.84350  0.34350  0.50000  Biso   1.000  C 
  C255     1.0000 0.85530  0.29420  0.50000  Biso   1.000  C 
  C256     1.0000 0.79420  0.35530  0.50000  Biso   1.000  C 
  C257     1.0000 0.82050  0.25800  0.50000  Biso   1.000  C 
  H181     1.0000 0.88860  0.28510  0.50000  Biso   1.000  H 
  C258     1.0000 0.75800  0.32050  0.50000  Biso   1.000  C 
  H182     1.0000 0.78510  0.38860  0.50000  Biso   1.000  H 
  C259     1.0000 0.76930  0.26930  0.50000  Biso   1.000  C 
  C260     1.0000 0.73070  0.23070  0.50000  Biso   1.000  C 
  H183     1.0000 0.83050  0.22490  0.50000  Biso   1.000  H 
  C261     1.0000 0.74200  0.17950  0.50000  Biso   1.000  C 
  N37      1.0000 0.70815  0.33965  0.51198  Biso   1.000  N 
  C262     1.0000 0.67950  0.24200  0.50000  Biso   1.000  C 
  C263     1.0000 0.70580  0.14470  0.50000  Biso   1.000  C 
  N38      1.0000 0.79304  0.16013  0.48976  Biso   1.000  N 
  C264     1.0000 0.64470  0.20580  0.50000  Biso   1.000  C 
  H184     1.0000 0.66950  0.27510  0.50000  Biso   1.000  H 
  C265     1.0000 0.65650  0.15650  0.50000  Biso   1.000  C 
  C266     1.0000 0.61720  0.11720  0.50000  Biso   1.000  C 
  H185     1.0000 0.71490  0.11140  0.50000  Biso   1.000  H 
  H186     1.0000 0.61140  0.21490  0.50000  Biso   1.000  H 
  O107     1.0000 0.63260  0.07190  0.50000  Biso   1.000  O 
  O108     1.0000 0.57190  0.13260  0.50000  Biso   1.000  O 
  H187     1.0000 0.80354  0.13513  0.51774  Biso   1.000  H 
  H188     1.0000 0.79186  0.13663  0.45927  Biso   1.000  H 
  H189     1.0000 0.69792  0.35630  0.47773  Biso   1.000  H 
  H190     1.0000 0.71256  0.37082  0.53333  Biso   1.000  H 
  O109     1.0000 0.92810  0.63260  0.50000  Biso   1.000  O 
  C267     1.0000 0.88280  0.61720  0.50000  Biso   1.000  C 
  O110     1.0000 0.86740  0.57190  0.50000  Biso   1.000  O 
  C268     1.0000 0.84350  0.65650  0.50000  Biso   1.000  C 
  C269     1.0000 0.85530  0.70580  0.50000  Biso   1.000  C 
  C270     1.0000 0.79420  0.64470  0.50000  Biso   1.000  C 
  C271     1.0000 0.82050  0.74200  0.50000  Biso   1.000  C 
  H191     1.0000 0.88860  0.71490  0.50000  Biso   1.000  H 
  C272     1.0000 0.75800  0.67950  0.50000  Biso   1.000  C 
  H192     1.0000 0.78510  0.61140  0.50000  Biso   1.000  H 
  C273     1.0000 0.76930  0.73070  0.50000  Biso   1.000  C 
  C274     1.0000 0.73070  0.76930  0.50000  Biso   1.000  C 
  H193     1.0000 0.83050  0.77510  0.50000  Biso   1.000  H 
  C275     1.0000 0.74200  0.82050  0.50000  Biso   1.000  C 
  N39      1.0000 0.70697  0.65909  0.49747  Biso   1.000  N 
  C276     1.0000 0.67950  0.75800  0.50000  Biso   1.000  C 
  C277     1.0000 0.70580  0.85530  0.50000  Biso   1.000  C 
  N40      1.0000 0.79302  0.83981  0.49021  Biso   1.000  N 
  C278     1.0000 0.64470  0.79420  0.50000  Biso   1.000  C 
  H194     1.0000 0.66950  0.72490  0.50000  Biso   1.000  H 
  C279     1.0000 0.65650  0.84350  0.50000  Biso   1.000  C 
  C280     1.0000 0.61720  0.88280  0.50000  Biso   1.000  C 
  H195     1.0000 0.71490  0.88860  0.50000  Biso   1.000  H 
  H196     1.0000 0.61140  0.78510  0.50000  Biso   1.000  H 
  O111     1.0000 0.63260  0.92810  0.50000  Biso   1.000  O 
  O112     1.0000 0.57190  0.86740  0.50000  Biso   1.000  O 
  H197     1.0000 0.80548  0.86367  0.51770  Biso   1.000  H 
  H198     1.0000 0.79088  0.86474  0.46100  Biso   1.000  H 
  H199     1.0000 0.70284  0.64194  0.46328  Biso   1.000  H 
  H200     1.0000 0.70849  0.62792  0.52064  Biso   1.000  H 
  O113     1.0000 0.50000  0.07190  0.63260  Biso   1.000  O 
  C281     1.0000 0.50000  0.11720  0.61720  Biso   1.000  C 
  O114     1.0000 0.50000  0.13260  0.57190  Biso   1.000  O 
  C282     1.0000 0.50000  0.15650  0.65650  Biso   1.000  C 
  C283     1.0000 0.50000  0.14470  0.70580  Biso   1.000  C 
  C284     1.0000 0.50000  0.20580  0.64470  Biso   1.000  C 
  C285     1.0000 0.50000  0.17950  0.74200  Biso   1.000  C 
  H201     1.0000 0.50000  0.11140  0.71490  Biso   1.000  H 
  C286     1.0000 0.50000  0.24200  0.67950  Biso   1.000  C 
  H202     1.0000 0.50000  0.21490  0.61140  Biso   1.000  H 
  C287     1.0000 0.50000  0.23070  0.73070  Biso   1.000  C 
  C288     1.0000 0.50000  0.26930  0.76930  Biso   1.000  C 
  H203     1.0000 0.50000  0.16950  0.77510  Biso   1.000  H 
  C289     1.0000 0.50000  0.25800  0.82050  Biso   1.000  C 
  N41      1.0000 0.50889  0.29387  0.65845  Biso   1.000  N 
  C290     1.0000 0.50000  0.32050  0.75800  Biso   1.000  C 
  C291     1.0000 0.50000  0.29420  0.85530  Biso   1.000  C 
  N42      1.0000 0.49927  0.20642  0.84228  Biso   1.000  N 
  C292     1.0000 0.50000  0.35530  0.79420  Biso   1.000  C 
  H204     1.0000 0.50000  0.33050  0.72490  Biso   1.000  H 
  C293     1.0000 0.50000  0.34350  0.84350  Biso   1.000  C 
  C294     1.0000 0.50000  0.38280  0.88280  Biso   1.000  C 
  H205     1.0000 0.50000  0.28510  0.88860  Biso   1.000  H 
  H206     1.0000 0.50000  0.38860  0.78510  Biso   1.000  H 
  O115     1.0000 0.50000  0.36740  0.92810  Biso   1.000  O 
  O116     1.0000 0.50000  0.42810  0.86740  Biso   1.000  O 
  H207     1.0000 0.53671  0.19474  0.84127  Biso   1.000  H 
  H208     1.0000 0.49169  0.20436  0.88080  Biso   1.000  H 
  H209     1.0000 0.47535  0.31170  0.65332  Biso   1.000  H 
  H210     1.0000 0.53482  0.29475  0.63004  Biso   1.000  H 
  O117     1.0000 0.50000  0.07190  0.36740  Biso   1.000  O 
  C295     1.0000 0.50000  0.11720  0.38280  Biso   1.000  C 
  O118     1.0000 0.50000  0.13260  0.42810  Biso   1.000  O 
  C296     1.0000 0.50000  0.15650  0.34350  Biso   1.000  C 
  C297     1.0000 0.50000  0.14470  0.29420  Biso   1.000  C 
  C298     1.0000 0.50000  0.20580  0.35530  Biso   1.000  C 
  C299     1.0000 0.50000  0.17950  0.25800  Biso   1.000  C 
  H211     1.0000 0.50000  0.11140  0.28510  Biso   1.000  H 
  C300     1.0000 0.50000  0.24200  0.32050  Biso   1.000  C 
  H212     1.0000 0.50000  0.21490  0.38860  Biso   1.000  H 
  C301     1.0000 0.50000  0.23070  0.26930  Biso   1.000  C 
  C302     1.0000 0.50000  0.26930  0.23070  Biso   1.000  C 
  H213     1.0000 0.50000  0.16950  0.22490  Biso   1.000  H 
  C303     1.0000 0.50000  0.25800  0.17950  Biso   1.000  C 
  N43      1.0000 0.50815  0.29294  0.33926  Biso   1.000  N 
  C304     1.0000 0.50000  0.32050  0.24200  Biso   1.000  C 
  C305     1.0000 0.50000  0.29420  0.14470  Biso   1.000  C 
  N44      1.0000 0.49632  0.20674  0.15871  Biso   1.000  N 
  C306     1.0000 0.50000  0.35530  0.20580  Biso   1.000  C 
  H214     1.0000 0.50000  0.33050  0.27510  Biso   1.000  H 
  C307     1.0000 0.50000  0.34350  0.15650  Biso   1.000  C 
  C308     1.0000 0.50000  0.38280  0.11720  Biso   1.000  C 
  H215     1.0000 0.50000  0.28510  0.11140  Biso   1.000  H 
  H216     1.0000 0.50000  0.38860  0.21490  Biso   1.000  H 
  O119     1.0000 0.50000  0.36740  0.07190  Biso   1.000  O 
  O120     1.0000 0.50000  0.42810  0.13260  Biso   1.000  O 
  H217     1.0000 0.52620  0.20418  0.13324  Biso   1.000  H 
  H218     1.0000 0.46175  0.20253  0.14156  Biso   1.000  H 
  H219     1.0000 0.47584  0.30003  0.36050  Biso   1.000  H 
  H220     1.0000 0.53521  0.28905  0.36522  Biso   1.000  H 
  O121     1.0000 0.50000  0.92810  0.36740  Biso   1.000  O 
  C309     1.0000 0.50000  0.88280  0.38280  Biso   1.000  C 
  O122     1.0000 0.50000  0.86740  0.42810  Biso   1.000  O 
  C310     1.0000 0.50000  0.84350  0.34350  Biso   1.000  C 
  C311     1.0000 0.50000  0.85530  0.29420  Biso   1.000  C 
  C312     1.0000 0.50000  0.79420  0.35530  Biso   1.000  C 
  C313     1.0000 0.50000  0.82050  0.25800  Biso   1.000  C 
  H221     1.0000 0.50000  0.88860  0.28510  Biso   1.000  H 
  C314     1.0000 0.50000  0.75800  0.32050  Biso   1.000  C 
  H222     1.0000 0.50000  0.78510  0.38860  Biso   1.000  H 
  C315     1.0000 0.50000  0.76930  0.26930  Biso   1.000  C 
  C316     1.0000 0.50000  0.73070  0.23070  Biso   1.000  C 
  H223     1.0000 0.50000  0.83050  0.22490  Biso   1.000  H 
  C317     1.0000 0.50000  0.74200  0.17950  Biso   1.000  C 
  N45      1.0000 0.50313  0.70867  0.33963  Biso   1.000  N 
  C318     1.0000 0.50000  0.67950  0.24200  Biso   1.000  C 
  C319     1.0000 0.50000  0.70580  0.14470  Biso   1.000  C 
  N46      1.0000 0.51002  0.79349  0.15935  Biso   1.000  N 
  C320     1.0000 0.50000  0.64470  0.20580  Biso   1.000  C 
  H224     1.0000 0.50000  0.66950  0.27510  Biso   1.000  H 
  C321     1.0000 0.50000  0.65650  0.15650  Biso   1.000  C 
  C322     1.0000 0.50000  0.61720  0.11720  Biso   1.000  C 
  H225     1.0000 0.50000  0.71490  0.11140  Biso   1.000  H 
  H226     1.0000 0.50000  0.61140  0.21490  Biso   1.000  H 
  O123     1.0000 0.50000  0.63260  0.07190  Biso   1.000  O 
  O124     1.0000 0.50000  0.57190  0.13260  Biso   1.000  O 
  H227     1.0000 0.47936  0.80225  0.13637  Biso   1.000  H 
  H228     1.0000 0.54252  0.79569  0.13779  Biso   1.000  H 
  H229     1.0000 0.53414  0.70985  0.36190  Biso   1.000  H 
  H230     1.0000 0.47494  0.70268  0.36729  Biso   1.000  H 
  O125     1.0000 0.50000  0.92810  0.63260  Biso   1.000  O 
  C323     1.0000 0.50000  0.88280  0.61720  Biso   1.000  C 
  O126     1.0000 0.50000  0.86740  0.57190  Biso   1.000  O 
  C324     1.0000 0.50000  0.84350  0.65650  Biso   1.000  C 
  C325     1.0000 0.50000  0.85530  0.70580  Biso   1.000  C 
  C326     1.0000 0.50000  0.79420  0.64470  Biso   1.000  C 
  C327     1.0000 0.50000  0.82050  0.74200  Biso   1.000  C 
  H231     1.0000 0.50000  0.88860  0.71490  Biso   1.000  H 
  C328     1.0000 0.50000  0.75800  0.67950  Biso   1.000  C 
  H232     1.0000 0.50000  0.78510  0.61140  Biso   1.000  H 
  C329     1.0000 0.50000  0.76930  0.73070  Biso   1.000  C 
  C330     1.0000 0.50000  0.73070  0.76930  Biso   1.000  C 
  H233     1.0000 0.50000  0.83050  0.77510  Biso   1.000  H 
  C331     1.0000 0.50000  0.74200  0.82050  Biso   1.000  C 
  N47      1.0000 0.49504  0.70717  0.65992  Biso   1.000  N 
  C332     1.0000 0.50000  0.67950  0.75800  Biso   1.000  C 
  C333     1.0000 0.50000  0.70580  0.85530  Biso   1.000  C 
  N48      1.0000 0.50017  0.79403  0.84124  Biso   1.000  N 
  C334     1.0000 0.50000  0.64470  0.79420  Biso   1.000  C 
  H234     1.0000 0.50000  0.66950  0.72490  Biso   1.000  H 
  C335     1.0000 0.50000  0.65650  0.84350  Biso   1.000  C 
  C336     1.0000 0.50000  0.61720  0.88280  Biso   1.000  C 
  H235     1.0000 0.50000  0.71490  0.88860  Biso   1.000  H 
  H236     1.0000 0.50000  0.61140  0.78510  Biso   1.000  H 
  O127     1.0000 0.50000  0.63260  0.92810  Biso   1.000  O 
  O128     1.0000 0.50000  0.57190  0.86740  Biso   1.000  O 
  H237     1.0000 0.46925  0.80137  0.86344  Biso   1.000  H 
  H238     1.0000 0.52979  0.80008  0.86621  Biso   1.000  H 
  H239     1.0000 0.52454  0.70425  0.63596  Biso   1.000  H 
  H240     1.0000 0.46349  0.70972  0.63977  Biso   1.000  H 
