data_image0
_cell_length_a       26.896
_cell_length_b       26.896
_cell_length_c       26.896
_cell_angle_alpha    90
_cell_angle_beta     90
_cell_angle_gamma    90

_symmetry_space_group_name_H-M    "P 1"
_symmetry_int_tables_number       1

loop_
  _symmetry_equiv_pos_as_xyz
  'x, y, z'

loop_
  _atom_site_label
  _atom_site_occupancy
  _atom_site_fract_x
  _atom_site_fract_y
  _atom_site_fract_z
  _atom_site_thermal_displace_type
  _atom_site_B_iso_or_equiv
  _atom_site_type_symbol
  Zr1      1.0000 0.09204  0.00000  0.00000  Biso   1.000  Zr
  Zr2      1.0000 0.90796  0.00000  0.00000  Biso   1.000  Zr
  Zr3      1.0000 0.00000  0.09204  0.00000  Biso   1.000  Zr
  Zr4      1.0000 0.00000  0.90796  0.00000  Biso   1.000  Zr
  Zr5      1.0000 0.00000  0.00000  0.09204  Biso   1.000  Zr
  Zr6      1.0000 0.00000  0.00000  0.90796  Biso   1.000  Zr
  Zr7      1.0000 0.09204  0.50000  0.50000  Biso   1.000  Zr
  Zr8      1.0000 0.90796  0.50000  0.50000  Biso   1.000  Zr
  Zr9      1.0000 0.00000  0.59204  0.50000  Biso   1.000  Zr
  Zr10     1.0000 0.00000  0.40796  0.50000  Biso   1.000  Zr
  Zr11     1.0000 0.00000  0.50000  0.59204  Biso   1.000  Zr
  Zr12     1.0000 0.00000  0.50000  0.40796  Biso   1.000  Zr
  Zr13     1.0000 0.59204  0.00000  0.50000  Biso   1.000  Zr
  Zr14     1.0000 0.40796  0.00000  0.50000  Biso   1.000  Zr
  Zr15     1.0000 0.50000  0.09204  0.50000  Biso   1.000  Zr
  Zr16     1.0000 0.50000  0.90796  0.50000  Biso   1.000  Zr
  Zr17     1.0000 0.50000  0.00000  0.59204  Biso   1.000  Zr
  Zr18     1.0000 0.50000  0.00000  0.40796  Biso   1.000  Zr
  Zr19     1.0000 0.59204  0.50000  0.00000  Biso   1.000  Zr
  Zr20     1.0000 0.40796  0.50000  0.00000  Biso   1.000  Zr
  Zr21     1.0000 0.50000  0.59204  0.00000  Biso   1.000  Zr
  Zr22     1.0000 0.50000  0.40796  0.00000  Biso   1.000  Zr
  Zr23     1.0000 0.50000  0.50000  0.09204  Biso   1.000  Zr
  Zr24     1.0000 0.50000  0.50000  0.90796  Biso   1.000  Zr
  O1       1.0000 0.04540  0.04540  0.04540  Biso   1.000  O 
  O2       1.0000 0.95460  0.95460  0.04540  Biso   1.000  O 
  O3       1.0000 0.95460  0.04540  0.95460  Biso   1.000  O 
  O4       1.0000 0.04540  0.95460  0.95460  Biso   1.000  O 
  O5       1.0000 0.04540  0.04540  0.95460  Biso   1.000  O 
  O6       1.0000 0.95460  0.95460  0.95460  Biso   1.000  O 
  O7       1.0000 0.04540  0.95460  0.04540  Biso   1.000  O 
  O8       1.0000 0.95460  0.04540  0.04540  Biso   1.000  O 
  O9       1.0000 0.04540  0.54540  0.54540  Biso   1.000  O 
  O10      1.0000 0.95460  0.45460  0.54540  Biso   1.000  O 
  O11      1.0000 0.95460  0.54540  0.45460  Biso   1.000  O 
  O12      1.0000 0.04540  0.45460  0.45460  Biso   1.000  O 
  O13      1.0000 0.04540  0.54540  0.45460  Biso   1.000  O 
  O14      1.0000 0.95460  0.45460  0.45460  Biso   1.000  O 
  O15      1.0000 0.04540  0.45460  0.54540  Biso   1.000  O 
  O16      1.0000 0.95460  0.54540  0.54540  Biso   1.000  O 
  O17      1.0000 0.54540  0.04540  0.54540  Biso   1.000  O 
  O18      1.0000 0.45460  0.95460  0.54540  Biso   1.000  O 
  O19      1.0000 0.45460  0.04540  0.45460  Biso   1.000  O 
  O20      1.0000 0.54540  0.95460  0.45460  Biso   1.000  O 
  O21      1.0000 0.54540  0.04540  0.45460  Biso   1.000  O 
  O22      1.0000 0.45460  0.95460  0.45460  Biso   1.000  O 
  O23      1.0000 0.54540  0.95460  0.54540  Biso   1.000  O 
  O24      1.0000 0.45460  0.04540  0.54540  Biso   1.000  O 
  O25      1.0000 0.54540  0.54540  0.04540  Biso   1.000  O 
  O26      1.0000 0.45460  0.45460  0.04540  Biso   1.000  O 
  O27      1.0000 0.45460  0.54540  0.95460  Biso   1.000  O 
  O28      1.0000 0.54540  0.45460  0.95460  Biso   1.000  O 
  O29      1.0000 0.54540  0.54540  0.95460  Biso   1.000  O 
  O30      1.0000 0.45460  0.45460  0.95460  Biso   1.000  O 
  O31      1.0000 0.54540  0.45460  0.04540  Biso   1.000  O 
  O32      1.0000 0.45460  0.54540  0.04540  Biso   1.000  O 
  O33      1.0000 0.13260  0.00000  0.07190  Biso   1.000  O 
  C1       1.0000 0.11720  0.00000  0.11720  Biso   1.000  C 
  O34      1.0000 0.07190  0.00000  0.13260  Biso   1.000  O 
  C2       1.0000 0.15650  0.00000  0.15650  Biso   1.000  C 
  C3       1.0000 0.20580  0.00000  0.14470  Biso   1.000  C 
  C4       1.0000 0.14470  0.00000  0.20580  Biso   1.000  C 
  C5       1.0000 0.24200  0.00000  0.17950  Biso   1.000  C 
  H1       1.0000 0.21490  0.00000  0.11140  Biso   1.000  H 
  C6       1.0000 0.17950  0.00000  0.24200  Biso   1.000  C 
  O35      1.0000 0.09237  0.99537  0.22046  Biso   1.000  O 
  C7       1.0000 0.23070  0.00000  0.23070  Biso   1.000  C 
  C8       1.0000 0.26930  0.00000  0.26930  Biso   1.000  C 
  H2       1.0000 0.27510  0.00000  0.16950  Biso   1.000  H 
  C9       1.0000 0.32050  0.00000  0.25800  Biso   1.000  C 
  H3       1.0000 0.16950  0.00000  0.27510  Biso   1.000  H 
  C10      1.0000 0.25800  0.00000  0.32050  Biso   1.000  C 
  C11      1.0000 0.35530  0.00000  0.29420  Biso   1.000  C 
  H4       1.0000 0.33050  0.00000  0.22490  Biso   1.000  H 
  C12      1.0000 0.29420  0.00000  0.35530  Biso   1.000  C 
  H5       1.0000 0.22490  0.00000  0.33050  Biso   1.000  H 
  C13      1.0000 0.34350  0.00000  0.34350  Biso   1.000  C 
  C14      1.0000 0.38280  0.00000  0.38280  Biso   1.000  C 
  O36      1.0000 0.40771  0.99826  0.27769  Biso   1.000  O 
  H6       1.0000 0.28510  0.00000  0.38860  Biso   1.000  H 
  O37      1.0000 0.42810  0.00000  0.36740  Biso   1.000  O 
  O38      1.0000 0.36740  0.00000  0.42810  Biso   1.000  O 
  C15      1.0000 0.41505  0.96086  0.24086  Biso   1.000  C 
  C16      1.0000 0.07860  0.02514  0.26098  Biso   1.000  C 
  C17      1.0000 0.38823  0.91112  0.25325  Biso   1.000  C 
  H7       1.0000 0.45675  0.95560  0.23980  Biso   1.000  H 
  H8       1.0000 0.40489  0.97712  0.20429  Biso   1.000  H 
  H9       1.0000 0.40982  0.89022  0.28119  Biso   1.000  H 
  C18      1.0000 0.38050  0.88282  0.20402  Biso   1.000  C 
  H10      1.0000 0.34975  0.91483  0.27020  Biso   1.000  H 
  C19      1.0000 0.34515  0.83734  0.21023  Biso   1.000  C 
  H11      1.0000 0.41621  0.87059  0.18744  Biso   1.000  H 
  H12      1.0000 0.36229  0.90982  0.17583  Biso   1.000  H 
  C20      1.0000 0.07295  0.99346  0.30864  Biso   1.000  C 
  H13      1.0000 0.04044  0.03745  0.25310  Biso   1.000  H 
  H14      1.0000 0.10219  0.05882  0.26797  Biso   1.000  H 
  C21      1.0000 0.05743  0.93773  0.30729  Biso   1.000  C 
  H15      1.0000 0.04848  0.01251  0.33331  Biso   1.000  H 
  H16      1.0000 0.10826  0.99409  0.32618  Biso   1.000  H 
  H17      1.0000 0.02183  0.93411  0.28674  Biso   1.000  H 
  C22      1.0000 0.05012  0.91964  0.36040  Biso   1.000  C 
  H18      1.0000 0.08595  0.91313  0.28849  Biso   1.000  H 
  H19      1.0000 0.08880  0.90833  0.37335  Biso   1.000  H 
  H20      1.0000 0.02390  0.88808  0.36111  Biso   1.000  H 
  H21      1.0000 0.03638  0.94777  0.38786  Biso   1.000  H 
  H22      1.0000 0.36200  0.80473  0.22590  Biso   1.000  H 
  H23      1.0000 0.33072  0.82417  0.17517  Biso   1.000  H 
  H24      1.0000 0.31535  0.85094  0.23530  Biso   1.000  H 
  O39      1.0000 0.86740  0.00000  0.07190  Biso   1.000  O 
  C23      1.0000 0.88280  0.00000  0.11720  Biso   1.000  C 
  O40      1.0000 0.92810  0.00000  0.13260  Biso   1.000  O 
  C24      1.0000 0.84350  0.00000  0.15650  Biso   1.000  C 
  C25      1.0000 0.79420  0.00000  0.14470  Biso   1.000  C 
  C26      1.0000 0.85530  0.00000  0.20580  Biso   1.000  C 
  C27      1.0000 0.75800  0.00000  0.17950  Biso   1.000  C 
  H25      1.0000 0.78510  0.00000  0.11140  Biso   1.000  H 
  C28      1.0000 0.82050  0.00000  0.24200  Biso   1.000  C 
  O41      1.0000 0.90763  0.00463  0.22046  Biso   1.000  O 
  C29      1.0000 0.76930  0.00000  0.23070  Biso   1.000  C 
  C30      1.0000 0.73070  0.00000  0.26930  Biso   1.000  C 
  H26      1.0000 0.72490  0.00000  0.16950  Biso   1.000  H 
  C31      1.0000 0.67950  0.00000  0.25800  Biso   1.000  C 
  H27      1.0000 0.83050  0.00000  0.27510  Biso   1.000  H 
  C32      1.0000 0.74200  0.00000  0.32050  Biso   1.000  C 
  C33      1.0000 0.64470  0.00000  0.29420  Biso   1.000  C 
  H28      1.0000 0.66950  0.00000  0.22490  Biso   1.000  H 
  C34      1.0000 0.70580  0.00000  0.35530  Biso   1.000  C 
  H29      1.0000 0.77510  0.00000  0.33050  Biso   1.000  H 
  C35      1.0000 0.65650  0.00000  0.34350  Biso   1.000  C 
  C36      1.0000 0.61720  0.00000  0.38280  Biso   1.000  C 
  O42      1.0000 0.59229  0.00174  0.27769  Biso   1.000  O 
  H30      1.0000 0.71490  0.00000  0.38860  Biso   1.000  H 
  O43      1.0000 0.57190  0.00000  0.36740  Biso   1.000  O 
  O44      1.0000 0.63260  0.00000  0.42810  Biso   1.000  O 
  C37      1.0000 0.58495  0.03914  0.24086  Biso   1.000  C 
  C38      1.0000 0.92140  0.97486  0.26098  Biso   1.000  C 
  C39      1.0000 0.61177  0.08887  0.25325  Biso   1.000  C 
  H31      1.0000 0.54325  0.04440  0.23980  Biso   1.000  H 
  H32      1.0000 0.59511  0.02288  0.20429  Biso   1.000  H 
  H33      1.0000 0.59018  0.10978  0.28119  Biso   1.000  H 
  C40      1.0000 0.61950  0.11719  0.20402  Biso   1.000  C 
  H34      1.0000 0.65025  0.08517  0.27020  Biso   1.000  H 
  C41      1.0000 0.65485  0.16266  0.21023  Biso   1.000  C 
  H35      1.0000 0.58379  0.12941  0.18744  Biso   1.000  H 
  H36      1.0000 0.63771  0.09019  0.17583  Biso   1.000  H 
  C42      1.0000 0.92704  0.00654  0.30864  Biso   1.000  C 
  H37      1.0000 0.95956  0.96254  0.25310  Biso   1.000  H 
  H38      1.0000 0.89781  0.94118  0.26797  Biso   1.000  H 
  C43      1.0000 0.94258  0.06227  0.30729  Biso   1.000  C 
  H39      1.0000 0.95152  0.98749  0.33331  Biso   1.000  H 
  H40      1.0000 0.89174  0.00591  0.32618  Biso   1.000  H 
  H41      1.0000 0.97817  0.06589  0.28674  Biso   1.000  H 
  C44      1.0000 0.94988  0.08036  0.36040  Biso   1.000  C 
  H42      1.0000 0.91404  0.08687  0.28850  Biso   1.000  H 
  H43      1.0000 0.91120  0.09167  0.37335  Biso   1.000  H 
  H44      1.0000 0.97610  0.11192  0.36111  Biso   1.000  H 
  H45      1.0000 0.96362  0.05223  0.38786  Biso   1.000  H 
  H46      1.0000 0.63801  0.19527  0.22590  Biso   1.000  H 
  H47      1.0000 0.66927  0.17583  0.17517  Biso   1.000  H 
  H48      1.0000 0.68465  0.14906  0.23530  Biso   1.000  H 
  O45      1.0000 0.86740  0.00000  0.92810  Biso   1.000  O 
  C45      1.0000 0.88280  0.00000  0.88280  Biso   1.000  C 
  O46      1.0000 0.92810  0.00000  0.86740  Biso   1.000  O 
  C46      1.0000 0.84350  0.00000  0.84350  Biso   1.000  C 
  C47      1.0000 0.79420  0.00000  0.85530  Biso   1.000  C 
  C48      1.0000 0.85530  0.00000  0.79420  Biso   1.000  C 
  C49      1.0000 0.75800  0.00000  0.82050  Biso   1.000  C 
  H49      1.0000 0.78510  0.00000  0.88860  Biso   1.000  H 
  C50      1.0000 0.82050  0.00000  0.75800  Biso   1.000  C 
  O47      1.0000 0.90763  0.99537  0.77954  Biso   1.000  O 
  C51      1.0000 0.76930  0.00000  0.76930  Biso   1.000  C 
  C52      1.0000 0.73070  0.00000  0.73070  Biso   1.000  C 
  H50      1.0000 0.72490  0.00000  0.83050  Biso   1.000  H 
  C53      1.0000 0.67950  0.00000  0.74200  Biso   1.000  C 
  H51      1.0000 0.83050  0.00000  0.72490  Biso   1.000  H 
  C54      1.0000 0.74200  0.00000  0.67950  Biso   1.000  C 
  C55      1.0000 0.64470  0.00000  0.70580  Biso   1.000  C 
  H52      1.0000 0.66950  0.00000  0.77510  Biso   1.000  H 
  C56      1.0000 0.70580  0.00000  0.64470  Biso   1.000  C 
  H53      1.0000 0.77510  0.00000  0.66950  Biso   1.000  H 
  C57      1.0000 0.65650  0.00000  0.65650  Biso   1.000  C 
  C58      1.0000 0.61720  0.00000  0.61720  Biso   1.000  C 
  O48      1.0000 0.59229  0.99826  0.72231  Biso   1.000  O 
  H54      1.0000 0.71490  0.00000  0.61140  Biso   1.000  H 
  O49      1.0000 0.57190  0.00000  0.63260  Biso   1.000  O 
  O50      1.0000 0.63260  0.00000  0.57190  Biso   1.000  O 
  C59      1.0000 0.58495  0.96086  0.75914  Biso   1.000  C 
  C60      1.0000 0.92140  0.02514  0.73902  Biso   1.000  C 
  C61      1.0000 0.61177  0.91112  0.74675  Biso   1.000  C 
  H55      1.0000 0.54325  0.95560  0.76020  Biso   1.000  H 
  H56      1.0000 0.59511  0.97712  0.79571  Biso   1.000  H 
  H57      1.0000 0.59018  0.89022  0.71881  Biso   1.000  H 
  C62      1.0000 0.61950  0.88282  0.79598  Biso   1.000  C 
  H58      1.0000 0.65025  0.91483  0.72980  Biso   1.000  H 
  C63      1.0000 0.65485  0.83734  0.78978  Biso   1.000  C 
  H59      1.0000 0.58379  0.87059  0.81256  Biso   1.000  H 
  H60      1.0000 0.63771  0.90982  0.82417  Biso   1.000  H 
  C64      1.0000 0.92704  0.99346  0.69136  Biso   1.000  C 
  H61      1.0000 0.95956  0.03745  0.74690  Biso   1.000  H 
  H62      1.0000 0.89781  0.05882  0.73203  Biso   1.000  H 
  C65      1.0000 0.94258  0.93773  0.69271  Biso   1.000  C 
  H63      1.0000 0.95152  0.01251  0.66669  Biso   1.000  H 
  H64      1.0000 0.89174  0.99409  0.67382  Biso   1.000  H 
  H65      1.0000 0.97817  0.93411  0.71326  Biso   1.000  H 
  C66      1.0000 0.94988  0.91964  0.63960  Biso   1.000  C 
  H66      1.0000 0.91404  0.91313  0.71150  Biso   1.000  H 
  H67      1.0000 0.91120  0.90833  0.62665  Biso   1.000  H 
  H68      1.0000 0.97610  0.88808  0.63889  Biso   1.000  H 
  H69      1.0000 0.96362  0.94777  0.61214  Biso   1.000  H 
  H70      1.0000 0.63801  0.80473  0.77410  Biso   1.000  H 
  H71      1.0000 0.66928  0.82417  0.82483  Biso   1.000  H 
  H72      1.0000 0.68465  0.85094  0.76470  Biso   1.000  H 
  O51      1.0000 0.13260  0.00000  0.92810  Biso   1.000  O 
  C67      1.0000 0.11720  0.00000  0.88280  Biso   1.000  C 
  O52      1.0000 0.07190  0.00000  0.86740  Biso   1.000  O 
  C68      1.0000 0.15650  0.00000  0.84350  Biso   1.000  C 
  C69      1.0000 0.20580  0.00000  0.85530  Biso   1.000  C 
  C70      1.0000 0.14470  0.00000  0.79420  Biso   1.000  C 
  C71      1.0000 0.24200  0.00000  0.82050  Biso   1.000  C 
  H73      1.0000 0.21490  0.00000  0.88860  Biso   1.000  H 
  C72      1.0000 0.17950  0.00000  0.75800  Biso   1.000  C 
  O53      1.0000 0.09237  0.00463  0.77954  Biso   1.000  O 
  C73      1.0000 0.23070  0.00000  0.76930  Biso   1.000  C 
  C74      1.0000 0.26930  0.00000  0.73070  Biso   1.000  C 
  H74      1.0000 0.27510  0.00000  0.83050  Biso   1.000  H 
  C75      1.0000 0.32050  0.00000  0.74200  Biso   1.000  C 
  H75      1.0000 0.16950  0.00000  0.72490  Biso   1.000  H 
  C76      1.0000 0.25800  0.00000  0.67950  Biso   1.000  C 
  C77      1.0000 0.35530  0.00000  0.70580  Biso   1.000  C 
  H76      1.0000 0.33050  0.00000  0.77510  Biso   1.000  H 
  C78      1.0000 0.29420  0.00000  0.64470  Biso   1.000  C 
  H77      1.0000 0.22490  0.00000  0.66950  Biso   1.000  H 
  C79      1.0000 0.34350  0.00000  0.65650  Biso   1.000  C 
  C80      1.0000 0.38280  0.00000  0.61720  Biso   1.000  C 
  O54      1.0000 0.40771  0.00174  0.72231  Biso   1.000  O 
  H78      1.0000 0.28510  0.00000  0.61140  Biso   1.000  H 
  O55      1.0000 0.42810  0.00000  0.63260  Biso   1.000  O 
  O56      1.0000 0.36740  0.00000  0.57190  Biso   1.000  O 
  C81      1.0000 0.41505  0.03914  0.75914  Biso   1.000  C 
  C82      1.0000 0.07860  0.97486  0.73902  Biso   1.000  C 
  C83      1.0000 0.38823  0.08887  0.74675  Biso   1.000  C 
  H79      1.0000 0.45675  0.04440  0.76020  Biso   1.000  H 
  H80      1.0000 0.40489  0.02288  0.79571  Biso   1.000  H 
  H81      1.0000 0.40982  0.10978  0.71881  Biso   1.000  H 
  C84      1.0000 0.38050  0.11719  0.79598  Biso   1.000  C 
  H82      1.0000 0.34975  0.08517  0.72980  Biso   1.000  H 
  C85      1.0000 0.34515  0.16266  0.78978  Biso   1.000  C 
  H83      1.0000 0.41621  0.12941  0.81256  Biso   1.000  H 
  H84      1.0000 0.36229  0.09019  0.82417  Biso   1.000  H 
  C86      1.0000 0.07295  0.00654  0.69136  Biso   1.000  C 
  H85      1.0000 0.04044  0.96254  0.74690  Biso   1.000  H 
  H86      1.0000 0.10219  0.94118  0.73203  Biso   1.000  H 
  C87      1.0000 0.05743  0.06227  0.69271  Biso   1.000  C 
  H87      1.0000 0.04848  0.98749  0.66669  Biso   1.000  H 
  H88      1.0000 0.10826  0.00591  0.67382  Biso   1.000  H 
  H89      1.0000 0.02183  0.06589  0.71325  Biso   1.000  H 
  C88      1.0000 0.05012  0.08036  0.63960  Biso   1.000  C 
  H90      1.0000 0.08595  0.08687  0.71150  Biso   1.000  H 
  H91      1.0000 0.08880  0.09167  0.62665  Biso   1.000  H 
  H92      1.0000 0.02390  0.11192  0.63889  Biso   1.000  H 
  H93      1.0000 0.03638  0.05223  0.61214  Biso   1.000  H 
  H94      1.0000 0.36200  0.19527  0.77410  Biso   1.000  H 
  H95      1.0000 0.33072  0.17583  0.82483  Biso   1.000  H 
  H96      1.0000 0.31535  0.14906  0.76470  Biso   1.000  H 
  O57      1.0000 0.07190  0.13260  0.00000  Biso   1.000  O 
  C89      1.0000 0.11720  0.11720  0.00000  Biso   1.000  C 
  O58      1.0000 0.13260  0.07190  0.00000  Biso   1.000  O 
  C90      1.0000 0.15650  0.15650  0.00000  Biso   1.000  C 
  C91      1.0000 0.14470  0.20580  0.00000  Biso   1.000  C 
  C92      1.0000 0.20580  0.14470  0.00000  Biso   1.000  C 
  C93      1.0000 0.17950  0.24200  0.00000  Biso   1.000  C 
  H97      1.0000 0.11140  0.21490  0.00000  Biso   1.000  H 
  C94      1.0000 0.24200  0.17950  0.00000  Biso   1.000  C 
  O59      1.0000 0.22023  0.09336  0.99068  Biso   1.000  O 
  C95      1.0000 0.23070  0.23070  0.00000  Biso   1.000  C 
  C96      1.0000 0.26930  0.26930  0.00000  Biso   1.000  C 
  H98      1.0000 0.16950  0.27510  0.00000  Biso   1.000  H 
  C97      1.0000 0.25800  0.32050  0.00000  Biso   1.000  C 
  H99      1.0000 0.27510  0.16950  0.00000  Biso   1.000  H 
  C98      1.0000 0.32050  0.25800  0.00000  Biso   1.000  C 
  C99      1.0000 0.29420  0.35530  0.00000  Biso   1.000  C 
  H100     1.0000 0.22490  0.33050  0.00000  Biso   1.000  H 
  C100     1.0000 0.35530  0.29420  0.00000  Biso   1.000  C 
  H101     1.0000 0.33050  0.22490  0.00000  Biso   1.000  H 
  C101     1.0000 0.34350  0.34350  0.00000  Biso   1.000  C 
  C102     1.0000 0.38280  0.38280  0.00000  Biso   1.000  C 
  O60      1.0000 0.27950  0.40811  0.99361  Biso   1.000  O 
  H102     1.0000 0.38860  0.28510  0.00000  Biso   1.000  H 
  O61      1.0000 0.36740  0.42810  0.00000  Biso   1.000  O 
  O62      1.0000 0.42810  0.36740  0.00000  Biso   1.000  O 
  C103     1.0000 0.22968  0.41219  0.97452  Biso   1.000  C 
  C104     1.0000 0.25343  0.07511  0.02572  Biso   1.000  C 
  C105     1.0000 0.21528  0.45898  0.94641  Biso   1.000  C 
  H103     1.0000 0.20372  0.40787  0.00617  Biso   1.000  H 
  H104     1.0000 0.22145  0.38315  0.94556  Biso   1.000  H 
  H105     1.0000 0.23406  0.49102  0.96240  Biso   1.000  H 
  C106     1.0000 0.15867  0.46697  0.94424  Biso   1.000  C 
  H106     1.0000 0.22662  0.45344  0.90773  Biso   1.000  H 
  C107     1.0000 0.14883  0.51611  0.91539  Biso   1.000  C 
  H107     1.0000 0.13831  0.46849  0.98053  Biso   1.000  H 
  H108     1.0000 0.14455  0.43483  0.92285  Biso   1.000  H 
  C108     1.0000 0.30691  0.07293  0.00378  Biso   1.000  C 
  H109     1.0000 0.24319  0.03609  0.03090  Biso   1.000  H 
  H110     1.0000 0.25123  0.09406  0.06219  Biso   1.000  H 
  C109     1.0000 0.30955  0.06372  0.94735  Biso   1.000  C 
  H111     1.0000 0.32616  0.04351  0.02096  Biso   1.000  H 
  H112     1.0000 0.32735  0.10721  0.01234  Biso   1.000  H 
  H113     1.0000 0.28034  0.03632  0.93629  Biso   1.000  H 
  C110     1.0000 0.35792  0.03856  0.92803  Biso   1.000  C 
  H114     1.0000 0.30400  0.09929  0.92761  Biso   1.000  H 
  H115     1.0000 0.38436  0.02964  0.95911  Biso   1.000  H 
  H116     1.0000 0.37820  0.06617  0.90426  Biso   1.000  H 
  H117     1.0000 0.34902  0.00416  0.90678  Biso   1.000  H 
  H118     1.0000 0.10908  0.52736  0.91737  Biso   1.000  H 
  H119     1.0000 0.15747  0.50936  0.87558  Biso   1.000  H 
  H120     1.0000 0.17246  0.54697  0.92853  Biso   1.000  H 
  O63      1.0000 0.07190  0.86740  0.00000  Biso   1.000  O 
  C111     1.0000 0.11720  0.88280  0.00000  Biso   1.000  C 
  O64      1.0000 0.13260  0.92810  0.00000  Biso   1.000  O 
  C112     1.0000 0.15650  0.84350  0.00000  Biso   1.000  C 
  C113     1.0000 0.14470  0.79420  0.00000  Biso   1.000  C 
  C114     1.0000 0.20580  0.85530  0.00000  Biso   1.000  C 
  C115     1.0000 0.17950  0.75800  0.00000  Biso   1.000  C 
  H121     1.0000 0.11140  0.78510  0.00000  Biso   1.000  H 
  C116     1.0000 0.24200  0.82050  0.00000  Biso   1.000  C 
  O65      1.0000 0.22023  0.90664  0.00932  Biso   1.000  O 
  C117     1.0000 0.23070  0.76930  0.00000  Biso   1.000  C 
  C118     1.0000 0.26930  0.73070  0.00000  Biso   1.000  C 
  H122     1.0000 0.16950  0.72490  0.00000  Biso   1.000  H 
  C119     1.0000 0.25800  0.67950  0.00000  Biso   1.000  C 
  H123     1.0000 0.27510  0.83050  0.00000  Biso   1.000  H 
  C120     1.0000 0.32050  0.74200  0.00000  Biso   1.000  C 
  C121     1.0000 0.29420  0.64470  0.00000  Biso   1.000  C 
  H124     1.0000 0.22490  0.66950  0.00000  Biso   1.000  H 
  C122     1.0000 0.35530  0.70580  0.00000  Biso   1.000  C 
  H125     1.0000 0.33050  0.77510  0.00000  Biso   1.000  H 
  C123     1.0000 0.34350  0.65650  0.00000  Biso   1.000  C 
  C124     1.0000 0.38280  0.61720  0.00000  Biso   1.000  C 
  O66      1.0000 0.27950  0.59189  0.00639  Biso   1.000  O 
  H126     1.0000 0.38860  0.71490  0.00000  Biso   1.000  H 
  O67      1.0000 0.36740  0.57190  0.00000  Biso   1.000  O 
  O68      1.0000 0.42810  0.63260  0.00000  Biso   1.000  O 
  C125     1.0000 0.22968  0.58781  0.02548  Biso   1.000  C 
  C126     1.0000 0.25343  0.92489  0.97428  Biso   1.000  C 
  C127     1.0000 0.21528  0.54102  0.05359  Biso   1.000  C 
  H127     1.0000 0.20372  0.59213  0.99383  Biso   1.000  H 
  H128     1.0000 0.22145  0.61685  0.05444  Biso   1.000  H 
  H129     1.0000 0.23406  0.50898  0.03761  Biso   1.000  H 
  C128     1.0000 0.15867  0.53303  0.05576  Biso   1.000  C 
  H130     1.0000 0.22662  0.54656  0.09227  Biso   1.000  H 
  C129     1.0000 0.14883  0.48389  0.08461  Biso   1.000  C 
  H131     1.0000 0.13831  0.53151  0.01947  Biso   1.000  H 
  H132     1.0000 0.14455  0.56517  0.07715  Biso   1.000  H 
  C130     1.0000 0.30691  0.92707  0.99622  Biso   1.000  C 
  H133     1.0000 0.24319  0.96391  0.96910  Biso   1.000  H 
  H134     1.0000 0.25123  0.90594  0.93781  Biso   1.000  H 
  C131     1.0000 0.30955  0.93628  0.05265  Biso   1.000  C 
  H135     1.0000 0.32616  0.95650  0.97905  Biso   1.000  H 
  H136     1.0000 0.32735  0.89279  0.98766  Biso   1.000  H 
  H137     1.0000 0.28034  0.96368  0.06371  Biso   1.000  H 
  C132     1.0000 0.35792  0.96144  0.07197  Biso   1.000  C 
  H138     1.0000 0.30400  0.90071  0.07239  Biso   1.000  H 
  H139     1.0000 0.38436  0.97036  0.04089  Biso   1.000  H 
  H140     1.0000 0.37820  0.93383  0.09573  Biso   1.000  H 
  H141     1.0000 0.34902  0.99584  0.09322  Biso   1.000  H 
  H142     1.0000 0.10908  0.47264  0.08263  Biso   1.000  H 
  H143     1.0000 0.15747  0.49064  0.12442  Biso   1.000  H 
  H144     1.0000 0.17246  0.45303  0.07147  Biso   1.000  H 
  O69      1.0000 0.92810  0.86740  0.00000  Biso   1.000  O 
  C133     1.0000 0.88280  0.88280  0.00000  Biso   1.000  C 
  O70      1.0000 0.86740  0.92810  0.00000  Biso   1.000  O 
  C134     1.0000 0.84350  0.84350  0.00000  Biso   1.000  C 
  C135     1.0000 0.85530  0.79420  0.00000  Biso   1.000  C 
  C136     1.0000 0.79420  0.85530  0.00000  Biso   1.000  C 
  C137     1.0000 0.82050  0.75800  0.00000  Biso   1.000  C 
  H145     1.0000 0.88860  0.78510  0.00000  Biso   1.000  H 
  C138     1.0000 0.75800  0.82050  0.00000  Biso   1.000  C 
  O71      1.0000 0.77977  0.90664  0.99068  Biso   1.000  O 
  C139     1.0000 0.76930  0.76930  0.00000  Biso   1.000  C 
  C140     1.0000 0.73070  0.73070  0.00000  Biso   1.000  C 
  H146     1.0000 0.83050  0.72490  0.00000  Biso   1.000  H 
  C141     1.0000 0.74200  0.67950  0.00000  Biso   1.000  C 
  H147     1.0000 0.72490  0.83050  0.00000  Biso   1.000  H 
  C142     1.0000 0.67950  0.74200  0.00000  Biso   1.000  C 
  C143     1.0000 0.70580  0.64470  0.00000  Biso   1.000  C 
  H148     1.0000 0.77510  0.66950  0.00000  Biso   1.000  H 
  C144     1.0000 0.64470  0.70580  0.00000  Biso   1.000  C 
  H149     1.0000 0.66950  0.77510  0.00000  Biso   1.000  H 
  C145     1.0000 0.65650  0.65650  0.00000  Biso   1.000  C 
  C146     1.0000 0.61720  0.61720  0.00000  Biso   1.000  C 
  O72      1.0000 0.72050  0.59189  0.99361  Biso   1.000  O 
  H150     1.0000 0.61140  0.71490  0.00000  Biso   1.000  H 
  O73      1.0000 0.63260  0.57190  0.00000  Biso   1.000  O 
  O74      1.0000 0.57190  0.63260  0.00000  Biso   1.000  O 
  C147     1.0000 0.77032  0.58781  0.97452  Biso   1.000  C 
  C148     1.0000 0.74658  0.92489  0.02572  Biso   1.000  C 
  C149     1.0000 0.78473  0.54102  0.94641  Biso   1.000  C 
  H151     1.0000 0.79629  0.59213  0.00617  Biso   1.000  H 
  H152     1.0000 0.77855  0.61685  0.94556  Biso   1.000  H 
  H153     1.0000 0.76594  0.50898  0.96240  Biso   1.000  H 
  C150     1.0000 0.84133  0.53303  0.94424  Biso   1.000  C 
  H154     1.0000 0.77338  0.54656  0.90773  Biso   1.000  H 
  C151     1.0000 0.85117  0.48389  0.91539  Biso   1.000  C 
  H155     1.0000 0.86169  0.53151  0.98053  Biso   1.000  H 
  H156     1.0000 0.85545  0.56517  0.92285  Biso   1.000  H 
  C152     1.0000 0.69310  0.92707  0.00378  Biso   1.000  C 
  H157     1.0000 0.75682  0.96391  0.03090  Biso   1.000  H 
  H158     1.0000 0.74877  0.90594  0.06219  Biso   1.000  H 
  C153     1.0000 0.69045  0.93628  0.94735  Biso   1.000  C 
  H159     1.0000 0.67384  0.95650  0.02096  Biso   1.000  H 
  H160     1.0000 0.67265  0.89279  0.01234  Biso   1.000  H 
  H161     1.0000 0.71966  0.96368  0.93629  Biso   1.000  H 
  C154     1.0000 0.64208  0.96144  0.92803  Biso   1.000  C 
  H162     1.0000 0.69600  0.90071  0.92761  Biso   1.000  H 
  H163     1.0000 0.61564  0.97036  0.95911  Biso   1.000  H 
  H164     1.0000 0.62180  0.93383  0.90426  Biso   1.000  H 
  H165     1.0000 0.65098  0.99584  0.90678  Biso   1.000  H 
  H166     1.0000 0.89092  0.47264  0.91737  Biso   1.000  H 
  H167     1.0000 0.84253  0.49064  0.87558  Biso   1.000  H 
  H168     1.0000 0.82754  0.45303  0.92853  Biso   1.000  H 
  O75      1.0000 0.92810  0.13260  0.00000  Biso   1.000  O 
  C155     1.0000 0.88280  0.11720  0.00000  Biso   1.000  C 
  O76      1.0000 0.86740  0.07190  0.00000  Biso   1.000  O 
  C156     1.0000 0.84350  0.15650  0.00000  Biso   1.000  C 
  C157     1.0000 0.85530  0.20580  0.00000  Biso   1.000  C 
  C158     1.0000 0.79420  0.14470  0.00000  Biso   1.000  C 
  C159     1.0000 0.82050  0.24200  0.00000  Biso   1.000  C 
  H169     1.0000 0.88860  0.21490  0.00000  Biso   1.000  H 
  C160     1.0000 0.75800  0.17950  0.00000  Biso   1.000  C 
  O77      1.0000 0.77977  0.09336  0.00932  Biso   1.000  O 
  C161     1.0000 0.76930  0.23070  0.00000  Biso   1.000  C 
  C162     1.0000 0.73070  0.26930  0.00000  Biso   1.000  C 
  H170     1.0000 0.83050  0.27510  0.00000  Biso   1.000  H 
  C163     1.0000 0.74200  0.32050  0.00000  Biso   1.000  C 
  H171     1.0000 0.72490  0.16950  0.00000  Biso   1.000  H 
  C164     1.0000 0.67950  0.25800  0.00000  Biso   1.000  C 
  C165     1.0000 0.70580  0.35530  0.00000  Biso   1.000  C 
  H172     1.0000 0.77510  0.33050  0.00000  Biso   1.000  H 
  C166     1.0000 0.64470  0.29420  0.00000  Biso   1.000  C 
  H173     1.0000 0.66950  0.22490  0.00000  Biso   1.000  H 
  C167     1.0000 0.65650  0.34350  0.00000  Biso   1.000  C 
  C168     1.0000 0.61720  0.38280  0.00000  Biso   1.000  C 
  O78      1.0000 0.72050  0.40811  0.00639  Biso   1.000  O 
  H174     1.0000 0.61140  0.28510  0.00000  Biso   1.000  H 
  O79      1.0000 0.63260  0.42810  0.00000  Biso   1.000  O 
  O80      1.0000 0.57190  0.36740  0.00000  Biso   1.000  O 
  C169     1.0000 0.77032  0.41219  0.02548  Biso   1.000  C 
  C170     1.0000 0.74658  0.07511  0.97428  Biso   1.000  C 
  C171     1.0000 0.78473  0.45898  0.05359  Biso   1.000  C 
  H175     1.0000 0.79629  0.40787  0.99383  Biso   1.000  H 
  H176     1.0000 0.77855  0.38315  0.05444  Biso   1.000  H 
  H177     1.0000 0.76594  0.49102  0.03761  Biso   1.000  H 
  C172     1.0000 0.84133  0.46697  0.05576  Biso   1.000  C 
  H178     1.0000 0.77338  0.45344  0.09227  Biso   1.000  H 
  C173     1.0000 0.85117  0.51611  0.08461  Biso   1.000  C 
  H179     1.0000 0.86169  0.46849  0.01947  Biso   1.000  H 
  H180     1.0000 0.85545  0.43483  0.07715  Biso   1.000  H 
  C174     1.0000 0.69310  0.07293  0.99622  Biso   1.000  C 
  H181     1.0000 0.75682  0.03609  0.96910  Biso   1.000  H 
  H182     1.0000 0.74877  0.09406  0.93781  Biso   1.000  H 
  C175     1.0000 0.69045  0.06372  0.05265  Biso   1.000  C 
  H183     1.0000 0.67384  0.04351  0.97905  Biso   1.000  H 
  H184     1.0000 0.67265  0.10721  0.98766  Biso   1.000  H 
  H185     1.0000 0.71966  0.03632  0.06371  Biso   1.000  H 
  C176     1.0000 0.64208  0.03856  0.07197  Biso   1.000  C 
  H186     1.0000 0.69600  0.09929  0.07239  Biso   1.000  H 
  H187     1.0000 0.61564  0.02964  0.04089  Biso   1.000  H 
  H188     1.0000 0.62180  0.06617  0.09573  Biso   1.000  H 
  H189     1.0000 0.65098  0.00416  0.09322  Biso   1.000  H 
  H190     1.0000 0.89092  0.52736  0.08263  Biso   1.000  H 
  H191     1.0000 0.84253  0.50936  0.12442  Biso   1.000  H 
  H192     1.0000 0.82754  0.54697  0.07147  Biso   1.000  H 
  O81      1.0000 0.00000  0.07190  0.13260  Biso   1.000  O 
  C177     1.0000 0.00000  0.11720  0.11720  Biso   1.000  C 
  O82      1.0000 0.00000  0.13260  0.07190  Biso   1.000  O 
  C178     1.0000 0.00000  0.15650  0.15650  Biso   1.000  C 
  C179     1.0000 0.00000  0.14470  0.20580  Biso   1.000  C 
  C180     1.0000 0.00000  0.20580  0.14470  Biso   1.000  C 
  C181     1.0000 0.00000  0.17950  0.24200  Biso   1.000  C 
  H193     1.0000 0.00000  0.11140  0.21490  Biso   1.000  H 
  C182     1.0000 0.00000  0.24200  0.17950  Biso   1.000  C 
  O83      1.0000 0.98890  0.21931  0.09304  Biso   1.000  O 
  C183     1.0000 0.00000  0.23070  0.23070  Biso   1.000  C 
  C184     1.0000 0.00000  0.26930  0.26930  Biso   1.000  C 
  H194     1.0000 0.00000  0.16950  0.27510  Biso   1.000  H 
  C185     1.0000 0.00000  0.25800  0.32050  Biso   1.000  C 
  H195     1.0000 0.00000  0.27510  0.16950  Biso   1.000  H 
  C186     1.0000 0.00000  0.32050  0.25800  Biso   1.000  C 
  C187     1.0000 0.00000  0.29420  0.35530  Biso   1.000  C 
  H196     1.0000 0.00000  0.22490  0.33050  Biso   1.000  H 
  C188     1.0000 0.00000  0.35530  0.29420  Biso   1.000  C 
  H197     1.0000 0.00000  0.33050  0.22490  Biso   1.000  H 
  C189     1.0000 0.00000  0.34350  0.34350  Biso   1.000  C 
  C190     1.0000 0.00000  0.38280  0.38280  Biso   1.000  C 
  O84      1.0000 0.00209  0.27614  0.40674  Biso   1.000  O 
  H198     1.0000 0.00000  0.38860  0.28510  Biso   1.000  H 
  O85      1.0000 0.00000  0.36740  0.42810  Biso   1.000  O 
  O86      1.0000 0.00000  0.42810  0.36740  Biso   1.000  O 
  C191     1.0000 0.95986  0.24713  0.41997  Biso   1.000  C 
  C192     1.0000 0.02376  0.25311  0.07295  Biso   1.000  C 
  C193     1.0000 0.91058  0.25232  0.38914  Biso   1.000  C 
  H199     1.0000 0.95246  0.25630  0.46024  Biso   1.000  H 
  H200     1.0000 0.97272  0.20865  0.42166  Biso   1.000  H 
  H201     1.0000 0.88860  0.28198  0.40569  Biso   1.000  H 
  C194     1.0000 0.88118  0.20242  0.38608  Biso   1.000  C 
  H202     1.0000 0.91436  0.26265  0.34825  Biso   1.000  H 
  C195     1.0000 0.83673  0.20788  0.35038  Biso   1.000  C 
  H203     1.0000 0.86721  0.19105  0.42253  Biso   1.000  H 
  H204     1.0000 0.90760  0.17256  0.37097  Biso   1.000  H 
  C196     1.0000 0.00472  0.30832  0.08028  Biso   1.000  C 
  H205     1.0000 0.02810  0.24456  0.03291  Biso   1.000  H 
  H206     1.0000 0.06136  0.24949  0.09029  Biso   1.000  H 
  C197     1.0000 0.94832  0.31667  0.09441  Biso   1.000  C 
  H207     1.0000 0.01187  0.32809  0.04503  Biso   1.000  H 
  H208     1.0000 0.02892  0.32540  0.10922  Biso   1.000  H 
  H209     1.0000 0.93296  0.28298  0.11267  Biso   1.000  H 
  C198     1.0000 0.91550  0.32815  0.05037  Biso   1.000  C 
  H210     1.0000 0.94474  0.34839  0.12014  Biso   1.000  H 
  H211     1.0000 0.87591  0.33045  0.06299  Biso   1.000  H 
  H212     1.0000 0.91871  0.29845  0.02211  Biso   1.000  H 
  H213     1.0000 0.92655  0.36447  0.03408  Biso   1.000  H 
  H214     1.0000 0.81148  0.23774  0.36415  Biso   1.000  H 
  H215     1.0000 0.81214  0.17628  0.34819  Biso   1.000  H 
  H216     1.0000 0.84995  0.21267  0.31072  Biso   1.000  H 
  O87      1.0000 0.00000  0.07190  0.86740  Biso   1.000  O 
  C199     1.0000 0.00000  0.11720  0.88280  Biso   1.000  C 
  O88      1.0000 0.00000  0.13260  0.92810  Biso   1.000  O 
  C200     1.0000 0.00000  0.15650  0.84350  Biso   1.000  C 
  C201     1.0000 0.00000  0.14470  0.79420  Biso   1.000  C 
  C202     1.0000 0.00000  0.20580  0.85530  Biso   1.000  C 
  C203     1.0000 0.00000  0.17950  0.75800  Biso   1.000  C 
  H217     1.0000 0.00000  0.11140  0.78510  Biso   1.000  H 
  C204     1.0000 0.00000  0.24200  0.82050  Biso   1.000  C 
  O89      1.0000 0.01110  0.21931  0.90696  Biso   1.000  O 
  C205     1.0000 0.00000  0.23070  0.76930  Biso   1.000  C 
  C206     1.0000 0.00000  0.26930  0.73070  Biso   1.000  C 
  H218     1.0000 0.00000  0.16950  0.72490  Biso   1.000  H 
  C207     1.0000 0.00000  0.25800  0.67950  Biso   1.000  C 
  H219     1.0000 0.00000  0.27510  0.83050  Biso   1.000  H 
  C208     1.0000 0.00000  0.32050  0.74200  Biso   1.000  C 
  C209     1.0000 0.00000  0.29420  0.64470  Biso   1.000  C 
  H220     1.0000 0.00000  0.22490  0.66950  Biso   1.000  H 
  C210     1.0000 0.00000  0.35530  0.70580  Biso   1.000  C 
  H221     1.0000 0.00000  0.33050  0.77510  Biso   1.000  H 
  C211     1.0000 0.00000  0.34350  0.65650  Biso   1.000  C 
  C212     1.0000 0.00000  0.38280  0.61720  Biso   1.000  C 
  O90      1.0000 0.99791  0.27614  0.59326  Biso   1.000  O 
  H222     1.0000 0.00000  0.38860  0.71490  Biso   1.000  H 
  O91      1.0000 0.00000  0.36740  0.57190  Biso   1.000  O 
  O92      1.0000 0.00000  0.42810  0.63260  Biso   1.000  O 
  C213     1.0000 0.04014  0.24713  0.58003  Biso   1.000  C 
  C214     1.0000 0.97624  0.25311  0.92706  Biso   1.000  C 
  C215     1.0000 0.08942  0.25232  0.61086  Biso   1.000  C 
  H223     1.0000 0.04754  0.25630  0.53976  Biso   1.000  H 
  H224     1.0000 0.02728  0.20865  0.57834  Biso   1.000  H 
  H225     1.0000 0.11140  0.28198  0.59431  Biso   1.000  H 
  C216     1.0000 0.11882  0.20242  0.61392  Biso   1.000  C 
  H226     1.0000 0.08564  0.26265  0.65174  Biso   1.000  H 
  C217     1.0000 0.16327  0.20788  0.64962  Biso   1.000  C 
  H227     1.0000 0.13279  0.19105  0.57747  Biso   1.000  H 
  H228     1.0000 0.09240  0.17256  0.62903  Biso   1.000  H 
  C218     1.0000 0.99528  0.30832  0.91972  Biso   1.000  C 
  H229     1.0000 0.97190  0.24456  0.96709  Biso   1.000  H 
  H230     1.0000 0.93865  0.24949  0.90971  Biso   1.000  H 
  C219     1.0000 0.05168  0.31667  0.90559  Biso   1.000  C 
  H231     1.0000 0.98813  0.32809  0.95497  Biso   1.000  H 
  H232     1.0000 0.97108  0.32540  0.89078  Biso   1.000  H 
  H233     1.0000 0.06705  0.28298  0.88733  Biso   1.000  H 
  C220     1.0000 0.08450  0.32815  0.94963  Biso   1.000  C 
  H234     1.0000 0.05526  0.34839  0.87986  Biso   1.000  H 
  H235     1.0000 0.12409  0.33045  0.93701  Biso   1.000  H 
  H236     1.0000 0.08130  0.29845  0.97789  Biso   1.000  H 
  H237     1.0000 0.07345  0.36447  0.96592  Biso   1.000  H 
  H238     1.0000 0.18852  0.23774  0.63585  Biso   1.000  H 
  H239     1.0000 0.18786  0.17628  0.65181  Biso   1.000  H 
  H240     1.0000 0.15005  0.21267  0.68928  Biso   1.000  H 
  O93      1.0000 0.00000  0.92810  0.86740  Biso   1.000  O 
  C221     1.0000 0.00000  0.88280  0.88280  Biso   1.000  C 
  O94      1.0000 0.00000  0.86740  0.92810  Biso   1.000  O 
  C222     1.0000 0.00000  0.84350  0.84350  Biso   1.000  C 
  C223     1.0000 0.00000  0.85530  0.79420  Biso   1.000  C 
  C224     1.0000 0.00000  0.79420  0.85530  Biso   1.000  C 
  C225     1.0000 0.00000  0.82050  0.75800  Biso   1.000  C 
  H241     1.0000 0.00000  0.88860  0.78510  Biso   1.000  H 
  C226     1.0000 0.00000  0.75800  0.82050  Biso   1.000  C 
  O95      1.0000 0.98890  0.78069  0.90696  Biso   1.000  O 
  C227     1.0000 0.00000  0.76930  0.76930  Biso   1.000  C 
  C228     1.0000 0.00000  0.73070  0.73070  Biso   1.000  C 
  H242     1.0000 0.00000  0.83050  0.72490  Biso   1.000  H 
  C229     1.0000 0.00000  0.74200  0.67950  Biso   1.000  C 
  H243     1.0000 0.00000  0.72490  0.83050  Biso   1.000  H 
  C230     1.0000 0.00000  0.67950  0.74200  Biso   1.000  C 
  C231     1.0000 0.00000  0.70580  0.64470  Biso   1.000  C 
  H244     1.0000 0.00000  0.77510  0.66950  Biso   1.000  H 
  C232     1.0000 0.00000  0.64470  0.70580  Biso   1.000  C 
  H245     1.0000 0.00000  0.66950  0.77510  Biso   1.000  H 
  C233     1.0000 0.00000  0.65650  0.65650  Biso   1.000  C 
  C234     1.0000 0.00000  0.61720  0.61720  Biso   1.000  C 
  O96      1.0000 0.00209  0.72386  0.59326  Biso   1.000  O 
  H246     1.0000 0.00000  0.61140  0.71490  Biso   1.000  H 
  O97      1.0000 0.00000  0.63260  0.57190  Biso   1.000  O 
  O98      1.0000 0.00000  0.57190  0.63260  Biso   1.000  O 
  C235     1.0000 0.95986  0.75287  0.58003  Biso   1.000  C 
  C236     1.0000 0.02376  0.74689  0.92706  Biso   1.000  C 
  C237     1.0000 0.91058  0.74768  0.61086  Biso   1.000  C 
  H247     1.0000 0.95246  0.74370  0.53976  Biso   1.000  H 
  H248     1.0000 0.97272  0.79135  0.57834  Biso   1.000  H 
  H249     1.0000 0.88860  0.71802  0.59431  Biso   1.000  H 
  C238     1.0000 0.88118  0.79758  0.61392  Biso   1.000  C 
  H250     1.0000 0.91436  0.73735  0.65174  Biso   1.000  H 
  C239     1.0000 0.83673  0.79212  0.64962  Biso   1.000  C 
  H251     1.0000 0.86721  0.80895  0.57747  Biso   1.000  H 
  H252     1.0000 0.90760  0.82744  0.62903  Biso   1.000  H 
  C240     1.0000 0.00472  0.69168  0.91972  Biso   1.000  C 
  H253     1.0000 0.02810  0.75544  0.96709  Biso   1.000  H 
  H254     1.0000 0.06136  0.75051  0.90971  Biso   1.000  H 
  C241     1.0000 0.94832  0.68333  0.90559  Biso   1.000  C 
  H255     1.0000 0.01187  0.67191  0.95497  Biso   1.000  H 
  H256     1.0000 0.02892  0.67460  0.89078  Biso   1.000  H 
  H257     1.0000 0.93295  0.71702  0.88733  Biso   1.000  H 
  C242     1.0000 0.91550  0.67185  0.94963  Biso   1.000  C 
  H258     1.0000 0.94474  0.65161  0.87986  Biso   1.000  H 
  H259     1.0000 0.87591  0.66955  0.93701  Biso   1.000  H 
  H260     1.0000 0.91871  0.70155  0.97789  Biso   1.000  H 
  H261     1.0000 0.92655  0.63553  0.96592  Biso   1.000  H 
  H262     1.0000 0.81148  0.76226  0.63585  Biso   1.000  H 
  H263     1.0000 0.81214  0.82372  0.65181  Biso   1.000  H 
  H264     1.0000 0.84995  0.78733  0.68928  Biso   1.000  H 
  O99      1.0000 0.00000  0.92810  0.13260  Biso   1.000  O 
  C243     1.0000 0.00000  0.88280  0.11720  Biso   1.000  C 
  O100     1.0000 0.00000  0.86740  0.07190  Biso   1.000  O 
  C244     1.0000 0.00000  0.84350  0.15650  Biso   1.000  C 
  C245     1.0000 0.00000  0.85530  0.20580  Biso   1.000  C 
  C246     1.0000 0.00000  0.79420  0.14470  Biso   1.000  C 
  C247     1.0000 0.00000  0.82050  0.24200  Biso   1.000  C 
  H265     1.0000 0.00000  0.88860  0.21490  Biso   1.000  H 
  C248     1.0000 0.00000  0.75800  0.17950  Biso   1.000  C 
  O101     1.0000 0.01110  0.78069  0.09304  Biso   1.000  O 
  C249     1.0000 0.00000  0.76930  0.23070  Biso   1.000  C 
  C250     1.0000 0.00000  0.73070  0.26930  Biso   1.000  C 
  H266     1.0000 0.00000  0.83050  0.27510  Biso   1.000  H 
  C251     1.0000 0.00000  0.74200  0.32050  Biso   1.000  C 
  H267     1.0000 0.00000  0.72490  0.16950  Biso   1.000  H 
  C252     1.0000 0.00000  0.67950  0.25800  Biso   1.000  C 
  C253     1.0000 0.00000  0.70580  0.35530  Biso   1.000  C 
  H268     1.0000 0.00000  0.77510  0.33050  Biso   1.000  H 
  C254     1.0000 0.00000  0.64470  0.29420  Biso   1.000  C 
  H269     1.0000 0.00000  0.66950  0.22490  Biso   1.000  H 
  C255     1.0000 0.00000  0.65650  0.34350  Biso   1.000  C 
  C256     1.0000 0.00000  0.61720  0.38280  Biso   1.000  C 
  O102     1.0000 0.99791  0.72386  0.40674  Biso   1.000  O 
  H270     1.0000 0.00000  0.61140  0.28510  Biso   1.000  H 
  O103     1.0000 0.00000  0.63260  0.42810  Biso   1.000  O 
  O104     1.0000 0.00000  0.57190  0.36740  Biso   1.000  O 
  C257     1.0000 0.04014  0.75287  0.41997  Biso   1.000  C 
  C258     1.0000 0.97624  0.74689  0.07295  Biso   1.000  C 
  C259     1.0000 0.08942  0.74768  0.38914  Biso   1.000  C 
  H271     1.0000 0.04754  0.74370  0.46024  Biso   1.000  H 
  H272     1.0000 0.02728  0.79135  0.42166  Biso   1.000  H 
  H273     1.0000 0.11140  0.71802  0.40569  Biso   1.000  H 
  C260     1.0000 0.11882  0.79758  0.38608  Biso   1.000  C 
  H274     1.0000 0.08564  0.73735  0.34825  Biso   1.000  H 
  C261     1.0000 0.16327  0.79212  0.35038  Biso   1.000  C 
  H275     1.0000 0.13279  0.80895  0.42253  Biso   1.000  H 
  H276     1.0000 0.09240  0.82744  0.37097  Biso   1.000  H 
  C262     1.0000 0.99528  0.69168  0.08028  Biso   1.000  C 
  H277     1.0000 0.97190  0.75544  0.03291  Biso   1.000  H 
  H278     1.0000 0.93865  0.75051  0.09029  Biso   1.000  H 
  C263     1.0000 0.05168  0.68333  0.09441  Biso   1.000  C 
  H279     1.0000 0.98813  0.67191  0.04503  Biso   1.000  H 
  H280     1.0000 0.97108  0.67460  0.10922  Biso   1.000  H 
  H281     1.0000 0.06705  0.71702  0.11267  Biso   1.000  H 
  C264     1.0000 0.08450  0.67185  0.05037  Biso   1.000  C 
  H282     1.0000 0.05526  0.65161  0.12014  Biso   1.000  H 
  H283     1.0000 0.12409  0.66955  0.06299  Biso   1.000  H 
  H284     1.0000 0.08130  0.70155  0.02211  Biso   1.000  H 
  H285     1.0000 0.07345  0.63553  0.03408  Biso   1.000  H 
  H286     1.0000 0.18852  0.76226  0.36415  Biso   1.000  H 
  H287     1.0000 0.18786  0.82372  0.34819  Biso   1.000  H 
  H288     1.0000 0.15005  0.78733  0.31072  Biso   1.000  H 
  O105     1.0000 0.13260  0.50000  0.57190  Biso   1.000  O 
  C265     1.0000 0.11720  0.50000  0.61720  Biso   1.000  C 
  O106     1.0000 0.07190  0.50000  0.63260  Biso   1.000  O 
  C266     1.0000 0.15650  0.50000  0.65650  Biso   1.000  C 
  C267     1.0000 0.20580  0.50000  0.64470  Biso   1.000  C 
  C268     1.0000 0.14470  0.50000  0.70580  Biso   1.000  C 
  C269     1.0000 0.24200  0.50000  0.67950  Biso   1.000  C 
  H289     1.0000 0.21490  0.50000  0.61140  Biso   1.000  H 
  C270     1.0000 0.17950  0.50000  0.74200  Biso   1.000  C 
  O107     1.0000 0.09280  0.49016  0.72111  Biso   1.000  O 
  C271     1.0000 0.23070  0.50000  0.73070  Biso   1.000  C 
  C272     1.0000 0.26930  0.50000  0.76930  Biso   1.000  C 
  H290     1.0000 0.27510  0.50000  0.66950  Biso   1.000  H 
  C273     1.0000 0.32050  0.50000  0.75800  Biso   1.000  C 
  H291     1.0000 0.16950  0.50000  0.77510  Biso   1.000  H 
  C274     1.0000 0.25800  0.50000  0.82050  Biso   1.000  C 
  C275     1.0000 0.35530  0.50000  0.79420  Biso   1.000  C 
  H292     1.0000 0.33050  0.50000  0.72490  Biso   1.000  H 
  C276     1.0000 0.29420  0.50000  0.85530  Biso   1.000  C 
  H293     1.0000 0.22490  0.50000  0.83050  Biso   1.000  H 
  C277     1.0000 0.34350  0.50000  0.84350  Biso   1.000  C 
  C278     1.0000 0.38280  0.50000  0.88280  Biso   1.000  C 
  O108     1.0000 0.40809  0.49478  0.77929  Biso   1.000  O 
  H294     1.0000 0.28510  0.50000  0.88860  Biso   1.000  H 
  O109     1.0000 0.42810  0.50000  0.86740  Biso   1.000  O 
  O110     1.0000 0.36740  0.50000  0.92810  Biso   1.000  O 
  C279     1.0000 0.40970  0.46827  0.73373  Biso   1.000  C 
  C280     1.0000 0.07249  0.52961  0.74927  Biso   1.000  C 
  C281     1.0000 0.45858  0.44513  0.71817  Biso   1.000  C 
  H295     1.0000 0.40151  0.49455  0.70325  Biso   1.000  H 
  H296     1.0000 0.38306  0.43590  0.73247  Biso   1.000  H 
  H297     1.0000 0.48903  0.46208  0.73982  Biso   1.000  H 
  C282     1.0000 0.46759  0.44638  0.66179  Biso   1.000  C 
  H298     1.0000 0.45441  0.40537  0.72650  Biso   1.000  H 
  C283     1.0000 0.51925  0.42304  0.65304  Biso   1.000  C 
  H299     1.0000 0.46621  0.48317  0.64470  Biso   1.000  H 
  H300     1.0000 0.43822  0.42384  0.64407  Biso   1.000  H 
  C284     1.0000 0.07001  0.51724  0.80471  Biso   1.000  C 
  H301     1.0000 0.03386  0.53508  0.73530  Biso   1.000  H 
  H302     1.0000 0.09294  0.56600  0.74469  Biso   1.000  H 
  C285     1.0000 0.06111  0.46111  0.81721  Biso   1.000  C 
  H303     1.0000 0.04164  0.54008  0.82294  Biso   1.000  H 
  H304     1.0000 0.10604  0.52971  0.82016  Biso   1.000  H 
  H305     1.0000 0.03149  0.44503  0.79369  Biso   1.000  H 
  C286     1.0000 0.04831  0.45338  0.87130  Biso   1.000  C 
  H306     1.0000 0.09627  0.44116  0.80856  Biso   1.000  H 
  H307     1.0000 0.04304  0.48836  0.89319  Biso   1.000  H 
  H308     1.0000 0.07752  0.43213  0.88759  Biso   1.000  H 
  H309     1.0000 0.01438  0.42973  0.87544  Biso   1.000  H 
  H310     1.0000 0.52604  0.42687  0.61267  Biso   1.000  H 
  H311     1.0000 0.52117  0.38305  0.66271  Biso   1.000  H 
  H312     1.0000 0.54878  0.44239  0.67389  Biso   1.000  H 
  O111     1.0000 0.86740  0.50000  0.57190  Biso   1.000  O 
  C287     1.0000 0.88280  0.50000  0.61720  Biso   1.000  C 
  O112     1.0000 0.92810  0.50000  0.63260  Biso   1.000  O 
  C288     1.0000 0.84350  0.50000  0.65650  Biso   1.000  C 
  C289     1.0000 0.79420  0.50000  0.64470  Biso   1.000  C 
  C290     1.0000 0.85530  0.50000  0.70580  Biso   1.000  C 
  C291     1.0000 0.75800  0.50000  0.67950  Biso   1.000  C 
  H313     1.0000 0.78510  0.50000  0.61140  Biso   1.000  H 
  C292     1.0000 0.82050  0.50000  0.74200  Biso   1.000  C 
  O113     1.0000 0.90720  0.50984  0.72111  Biso   1.000  O 
  C293     1.0000 0.76930  0.50000  0.73070  Biso   1.000  C 
  C294     1.0000 0.73070  0.50000  0.76930  Biso   1.000  C 
  H314     1.0000 0.72490  0.50000  0.66950  Biso   1.000  H 
  C295     1.0000 0.67950  0.50000  0.75800  Biso   1.000  C 
  H315     1.0000 0.83050  0.50000  0.77510  Biso   1.000  H 
  C296     1.0000 0.74200  0.50000  0.82050  Biso   1.000  C 
  C297     1.0000 0.64470  0.50000  0.79420  Biso   1.000  C 
  H316     1.0000 0.66950  0.50000  0.72490  Biso   1.000  H 
  C298     1.0000 0.70580  0.50000  0.85530  Biso   1.000  C 
  H317     1.0000 0.77510  0.50000  0.83050  Biso   1.000  H 
  C299     1.0000 0.65650  0.50000  0.84350  Biso   1.000  C 
  C300     1.0000 0.61720  0.50000  0.88280  Biso   1.000  C 
  O114     1.0000 0.59191  0.50522  0.77929  Biso   1.000  O 
  H318     1.0000 0.71490  0.50000  0.88860  Biso   1.000  H 
  O115     1.0000 0.57190  0.50000  0.86740  Biso   1.000  O 
  O116     1.0000 0.63260  0.50000  0.92810  Biso   1.000  O 
  C301     1.0000 0.59030  0.53173  0.73373  Biso   1.000  C 
  C302     1.0000 0.92751  0.47039  0.74927  Biso   1.000  C 
  C303     1.0000 0.54142  0.55487  0.71817  Biso   1.000  C 
  H319     1.0000 0.59849  0.50545  0.70325  Biso   1.000  H 
  H320     1.0000 0.61694  0.56410  0.73247  Biso   1.000  H 
  H321     1.0000 0.51097  0.53792  0.73982  Biso   1.000  H 
  C304     1.0000 0.53241  0.55362  0.66179  Biso   1.000  C 
  H322     1.0000 0.54559  0.59463  0.72650  Biso   1.000  H 
  C305     1.0000 0.48075  0.57696  0.65304  Biso   1.000  C 
  H323     1.0000 0.53379  0.51683  0.64470  Biso   1.000  H 
  H324     1.0000 0.56178  0.57616  0.64407  Biso   1.000  H 
  C306     1.0000 0.92999  0.48276  0.80471  Biso   1.000  C 
  H325     1.0000 0.96614  0.46492  0.73530  Biso   1.000  H 
  H326     1.0000 0.90706  0.43400  0.74469  Biso   1.000  H 
  C307     1.0000 0.93889  0.53889  0.81721  Biso   1.000  C 
  H327     1.0000 0.95836  0.45992  0.82294  Biso   1.000  H 
  H328     1.0000 0.89396  0.47029  0.82016  Biso   1.000  H 
  H329     1.0000 0.96851  0.55497  0.79369  Biso   1.000  H 
  C308     1.0000 0.95170  0.54662  0.87130  Biso   1.000  C 
  H330     1.0000 0.90373  0.55884  0.80856  Biso   1.000  H 
  H331     1.0000 0.95696  0.51164  0.89319  Biso   1.000  H 
  H332     1.0000 0.92248  0.56787  0.88759  Biso   1.000  H 
  H333     1.0000 0.98562  0.57027  0.87544  Biso   1.000  H 
  H334     1.0000 0.47396  0.57313  0.61267  Biso   1.000  H 
  H335     1.0000 0.47883  0.61695  0.66271  Biso   1.000  H 
  H336     1.0000 0.45122  0.55761  0.67389  Biso   1.000  H 
  O117     1.0000 0.86740  0.50000  0.42810  Biso   1.000  O 
  C309     1.0000 0.88280  0.50000  0.38280  Biso   1.000  C 
  O118     1.0000 0.92810  0.50000  0.36740  Biso   1.000  O 
  C310     1.0000 0.84350  0.50000  0.34350  Biso   1.000  C 
  C311     1.0000 0.79420  0.50000  0.35530  Biso   1.000  C 
  C312     1.0000 0.85530  0.50000  0.29420  Biso   1.000  C 
  C313     1.0000 0.75800  0.50000  0.32050  Biso   1.000  C 
  H337     1.0000 0.78510  0.50000  0.38860  Biso   1.000  H 
  C314     1.0000 0.82050  0.50000  0.25800  Biso   1.000  C 
  O119     1.0000 0.90720  0.49016  0.27889  Biso   1.000  O 
  C315     1.0000 0.76930  0.50000  0.26930  Biso   1.000  C 
  C316     1.0000 0.73070  0.50000  0.23070  Biso   1.000  C 
  H338     1.0000 0.72490  0.50000  0.33050  Biso   1.000  H 
  C317     1.0000 0.67950  0.50000  0.24200  Biso   1.000  C 
  H339     1.0000 0.83050  0.50000  0.22490  Biso   1.000  H 
  C318     1.0000 0.74200  0.50000  0.17950  Biso   1.000  C 
  C319     1.0000 0.64470  0.50000  0.20580  Biso   1.000  C 
  H340     1.0000 0.66950  0.50000  0.27510  Biso   1.000  H 
  C320     1.0000 0.70580  0.50000  0.14470  Biso   1.000  C 
  H341     1.0000 0.77510  0.50000  0.16950  Biso   1.000  H 
  C321     1.0000 0.65650  0.50000  0.15650  Biso   1.000  C 
  C322     1.0000 0.61720  0.50000  0.11720  Biso   1.000  C 
  O120     1.0000 0.59191  0.49478  0.22071  Biso   1.000  O 
  H342     1.0000 0.71490  0.50000  0.11140  Biso   1.000  H 
  O121     1.0000 0.57190  0.50000  0.13260  Biso   1.000  O 
  O122     1.0000 0.63260  0.50000  0.07190  Biso   1.000  O 
  C323     1.0000 0.59030  0.46827  0.26627  Biso   1.000  C 
  C324     1.0000 0.92751  0.52961  0.25073  Biso   1.000  C 
  C325     1.0000 0.54142  0.44513  0.28183  Biso   1.000  C 
  H343     1.0000 0.59849  0.49455  0.29675  Biso   1.000  H 
  H344     1.0000 0.61694  0.43590  0.26753  Biso   1.000  H 
  H345     1.0000 0.51097  0.46208  0.26018  Biso   1.000  H 
  C326     1.0000 0.53241  0.44638  0.33821  Biso   1.000  C 
  H346     1.0000 0.54559  0.40537  0.27350  Biso   1.000  H 
  C327     1.0000 0.48075  0.42304  0.34696  Biso   1.000  C 
  H347     1.0000 0.53379  0.48317  0.35530  Biso   1.000  H 
  H348     1.0000 0.56178  0.42384  0.35593  Biso   1.000  H 
  C328     1.0000 0.92999  0.51724  0.19529  Biso   1.000  C 
  H349     1.0000 0.96614  0.53508  0.26470  Biso   1.000  H 
  H350     1.0000 0.90706  0.56600  0.25531  Biso   1.000  H 
  C329     1.0000 0.93889  0.46111  0.18279  Biso   1.000  C 
  H351     1.0000 0.95836  0.54008  0.17706  Biso   1.000  H 
  H352     1.0000 0.89396  0.52971  0.17984  Biso   1.000  H 
  H353     1.0000 0.96851  0.44503  0.20631  Biso   1.000  H 
  C330     1.0000 0.95170  0.45338  0.12870  Biso   1.000  C 
  H354     1.0000 0.90373  0.44116  0.19144  Biso   1.000  H 
  H355     1.0000 0.95696  0.48836  0.10681  Biso   1.000  H 
  H356     1.0000 0.92248  0.43213  0.11241  Biso   1.000  H 
  H357     1.0000 0.98562  0.42973  0.12456  Biso   1.000  H 
  H358     1.0000 0.47396  0.42687  0.38733  Biso   1.000  H 
  H359     1.0000 0.47883  0.38305  0.33729  Biso   1.000  H 
  H360     1.0000 0.45122  0.44239  0.32611  Biso   1.000  H 
  O123     1.0000 0.13260  0.50000  0.42810  Biso   1.000  O 
  C331     1.0000 0.11720  0.50000  0.38280  Biso   1.000  C 
  O124     1.0000 0.07190  0.50000  0.36740  Biso   1.000  O 
  C332     1.0000 0.15650  0.50000  0.34350  Biso   1.000  C 
  C333     1.0000 0.20580  0.50000  0.35530  Biso   1.000  C 
  C334     1.0000 0.14470  0.50000  0.29420  Biso   1.000  C 
  C335     1.0000 0.24200  0.50000  0.32050  Biso   1.000  C 
  H361     1.0000 0.21490  0.50000  0.38860  Biso   1.000  H 
  C336     1.0000 0.17950  0.50000  0.25800  Biso   1.000  C 
  O125     1.0000 0.09280  0.50984  0.27889  Biso   1.000  O 
  C337     1.0000 0.23070  0.50000  0.26930  Biso   1.000  C 
  C338     1.0000 0.26930  0.50000  0.23070  Biso   1.000  C 
  H362     1.0000 0.27510  0.50000  0.33050  Biso   1.000  H 
  C339     1.0000 0.32050  0.50000  0.24200  Biso   1.000  C 
  H363     1.0000 0.16950  0.50000  0.22490  Biso   1.000  H 
  C340     1.0000 0.25800  0.50000  0.17950  Biso   1.000  C 
  C341     1.0000 0.35530  0.50000  0.20580  Biso   1.000  C 
  H364     1.0000 0.33050  0.50000  0.27510  Biso   1.000  H 
  C342     1.0000 0.29420  0.50000  0.14470  Biso   1.000  C 
  H365     1.0000 0.22490  0.50000  0.16950  Biso   1.000  H 
  C343     1.0000 0.34350  0.50000  0.15650  Biso   1.000  C 
  C344     1.0000 0.38280  0.50000  0.11720  Biso   1.000  C 
  O126     1.0000 0.40809  0.50522  0.22071  Biso   1.000  O 
  H366     1.0000 0.28510  0.50000  0.11140  Biso   1.000  H 
  O127     1.0000 0.42810  0.50000  0.13260  Biso   1.000  O 
  O128     1.0000 0.36740  0.50000  0.07190  Biso   1.000  O 
  C345     1.0000 0.40970  0.53173  0.26627  Biso   1.000  C 
  C346     1.0000 0.07249  0.47039  0.25073  Biso   1.000  C 
  C347     1.0000 0.45858  0.55487  0.28183  Biso   1.000  C 
  H367     1.0000 0.40151  0.50545  0.29675  Biso   1.000  H 
  H368     1.0000 0.38306  0.56410  0.26753  Biso   1.000  H 
  H369     1.0000 0.48903  0.53792  0.26018  Biso   1.000  H 
  C348     1.0000 0.46759  0.55362  0.33821  Biso   1.000  C 
  H370     1.0000 0.45441  0.59463  0.27350  Biso   1.000  H 
  C349     1.0000 0.51925  0.57696  0.34696  Biso   1.000  C 
  H371     1.0000 0.46621  0.51683  0.35530  Biso   1.000  H 
  H372     1.0000 0.43822  0.57616  0.35593  Biso   1.000  H 
  C350     1.0000 0.07001  0.48276  0.19529  Biso   1.000  C 
  H373     1.0000 0.03386  0.46492  0.26470  Biso   1.000  H 
  H374     1.0000 0.09294  0.43400  0.25531  Biso   1.000  H 
  C351     1.0000 0.06111  0.53889  0.18279  Biso   1.000  C 
  H375     1.0000 0.04164  0.45992  0.17706  Biso   1.000  H 
  H376     1.0000 0.10604  0.47029  0.17984  Biso   1.000  H 
  H377     1.0000 0.03149  0.55497  0.20631  Biso   1.000  H 
  C352     1.0000 0.04831  0.54662  0.12870  Biso   1.000  C 
  H378     1.0000 0.09627  0.55884  0.19144  Biso   1.000  H 
  H379     1.0000 0.04304  0.51164  0.10681  Biso   1.000  H 
  H380     1.0000 0.07752  0.56787  0.11241  Biso   1.000  H 
  H381     1.0000 0.01438  0.57027  0.12456  Biso   1.000  H 
  H382     1.0000 0.52604  0.57313  0.38733  Biso   1.000  H 
  H383     1.0000 0.52117  0.61695  0.33729  Biso   1.000  H 
  H384     1.0000 0.54878  0.55761  0.32611  Biso   1.000  H 
  O129     1.0000 0.07190  0.63260  0.50000  Biso   1.000  O 
  C353     1.0000 0.11720  0.61720  0.50000  Biso   1.000  C 
  O130     1.0000 0.13260  0.57190  0.50000  Biso   1.000  O 
  C354     1.0000 0.15650  0.65650  0.50000  Biso   1.000  C 
  C355     1.0000 0.14470  0.70580  0.50000  Biso   1.000  C 
  C356     1.0000 0.20580  0.64470  0.50000  Biso   1.000  C 
  C357     1.0000 0.17950  0.74200  0.50000  Biso   1.000  C 
  H385     1.0000 0.11140  0.71490  0.50000  Biso   1.000  H 
  C358     1.0000 0.24200  0.67950  0.50000  Biso   1.000  C 
  O131     1.0000 0.21940  0.59322  0.48614  Biso   1.000  O 
  C359     1.0000 0.23070  0.73070  0.50000  Biso   1.000  C 
  C360     1.0000 0.26930  0.76930  0.50000  Biso   1.000  C 
  H386     1.0000 0.16950  0.77510  0.50000  Biso   1.000  H 
  C361     1.0000 0.25800  0.82050  0.50000  Biso   1.000  C 
  H387     1.0000 0.27510  0.66950  0.50000  Biso   1.000  H 
  C362     1.0000 0.32050  0.75800  0.50000  Biso   1.000  C 
  C363     1.0000 0.29420  0.85530  0.50000  Biso   1.000  C 
  H388     1.0000 0.22490  0.83050  0.50000  Biso   1.000  H 
  C364     1.0000 0.35530  0.79420  0.50000  Biso   1.000  C 
  H389     1.0000 0.33050  0.72490  0.50000  Biso   1.000  H 
  C365     1.0000 0.34350  0.84350  0.50000  Biso   1.000  C 
  C366     1.0000 0.38280  0.88280  0.50000  Biso   1.000  C 
  O132     1.0000 0.28028  0.90270  0.47762  Biso   1.000  O 
  H390     1.0000 0.38860  0.78510  0.50000  Biso   1.000  H 
  O133     1.0000 0.36740  0.92810  0.50000  Biso   1.000  O 
  O134     1.0000 0.42810  0.86740  0.50000  Biso   1.000  O 
  C367     1.0000 0.23013  0.92129  0.48613  Biso   1.000  C 
  C368     1.0000 0.25507  0.57227  0.51839  Biso   1.000  C 
  C369     1.0000 0.21963  0.96068  0.44683  Biso   1.000  C 
  H391     1.0000 0.22829  0.93323  0.52441  Biso   1.000  H 
  H392     1.0000 0.19877  0.89395  0.47855  Biso   1.000  H 
  H393     1.0000 0.24061  0.99152  0.45874  Biso   1.000  H 
  C370     1.0000 0.16314  0.97259  0.43924  Biso   1.000  C 
  H394     1.0000 0.23317  0.94459  0.41099  Biso   1.000  H 
  C371     1.0000 0.14912  0.02239  0.41136  Biso   1.000  C 
  H395     1.0000 0.14368  0.96793  0.47544  Biso   1.000  H 
  H396     1.0000 0.15071  0.94341  0.41365  Biso   1.000  H 
  C372     1.0000 0.30713  0.56903  0.49246  Biso   1.000  C 
  H397     1.0000 0.24164  0.53431  0.52722  Biso   1.000  H 
  H398     1.0000 0.25925  0.59306  0.55407  Biso   1.000  H 
  C373     1.0000 0.31013  0.56563  0.43463  Biso   1.000  C 
  H399     1.0000 0.32745  0.53777  0.50861  Biso   1.000  H 
  H400     1.0000 0.32809  0.60344  0.50348  Biso   1.000  H 
  H401     1.0000 0.27415  0.55158  0.42072  Biso   1.000  H 
  C374     1.0000 0.35116  0.53146  0.41256  Biso   1.000  C 
  H402     1.0000 0.31606  0.60358  0.41965  Biso   1.000  H 
  H403     1.0000 0.38819  0.53758  0.42953  Biso   1.000  H 
  H404     1.0000 0.35394  0.53955  0.37221  Biso   1.000  H 
  H405     1.0000 0.34030  0.49178  0.41664  Biso   1.000  H 
  H406     1.0000 0.10851  0.03065  0.41230  Biso   1.000  H 
  H407     1.0000 0.16444  0.02047  0.37425  Biso   1.000  H 
  H408     1.0000 0.16692  0.05267  0.43324  Biso   1.000  H 
  O135     1.0000 0.07190  0.36740  0.50000  Biso   1.000  O 
  C375     1.0000 0.11720  0.38280  0.50000  Biso   1.000  C 
  O136     1.0000 0.13260  0.42810  0.50000  Biso   1.000  O 
  C376     1.0000 0.15650  0.34350  0.50000  Biso   1.000  C 
  C377     1.0000 0.14470  0.29420  0.50000  Biso   1.000  C 
  C378     1.0000 0.20580  0.35530  0.50000  Biso   1.000  C 
  C379     1.0000 0.17950  0.25800  0.50000  Biso   1.000  C 
  H409     1.0000 0.11140  0.28510  0.50000  Biso   1.000  H 
  C380     1.0000 0.24200  0.32050  0.50000  Biso   1.000  C 
  O137     1.0000 0.21940  0.40678  0.51386  Biso   1.000  O 
  C381     1.0000 0.23070  0.26930  0.50000  Biso   1.000  C 
  C382     1.0000 0.26930  0.23070  0.50000  Biso   1.000  C 
  H410     1.0000 0.16950  0.22490  0.50000  Biso   1.000  H 
  C383     1.0000 0.25800  0.17950  0.50000  Biso   1.000  C 
  H411     1.0000 0.27510  0.33050  0.50000  Biso   1.000  H 
  C384     1.0000 0.32050  0.24200  0.50000  Biso   1.000  C 
  C385     1.0000 0.29420  0.14470  0.50000  Biso   1.000  C 
  H412     1.0000 0.22490  0.16950  0.50000  Biso   1.000  H 
  C386     1.0000 0.35530  0.20580  0.50000  Biso   1.000  C 
  H413     1.0000 0.33050  0.27510  0.50000  Biso   1.000  H 
  C387     1.0000 0.34350  0.15650  0.50000  Biso   1.000  C 
  C388     1.0000 0.38280  0.11720  0.50000  Biso   1.000  C 
  O138     1.0000 0.28028  0.09730  0.52238  Biso   1.000  O 
  H414     1.0000 0.38860  0.21490  0.50000  Biso   1.000  H 
  O139     1.0000 0.36740  0.07190  0.50000  Biso   1.000  O 
  O140     1.0000 0.42810  0.13260  0.50000  Biso   1.000  O 
  C389     1.0000 0.23013  0.07871  0.51387  Biso   1.000  C 
  C390     1.0000 0.25507  0.42773  0.48161  Biso   1.000  C 
  C391     1.0000 0.21963  0.03932  0.55317  Biso   1.000  C 
  H415     1.0000 0.22829  0.06677  0.47559  Biso   1.000  H 
  H416     1.0000 0.19877  0.10605  0.52145  Biso   1.000  H 
  H417     1.0000 0.24061  0.00848  0.54126  Biso   1.000  H 
  C392     1.0000 0.16314  0.02741  0.56076  Biso   1.000  C 
  H418     1.0000 0.23317  0.05541  0.58901  Biso   1.000  H 
  C393     1.0000 0.14912  0.97761  0.58864  Biso   1.000  C 
  H419     1.0000 0.14368  0.03207  0.52456  Biso   1.000  H 
  H420     1.0000 0.15071  0.05659  0.58635  Biso   1.000  H 
  C394     1.0000 0.30713  0.43097  0.50754  Biso   1.000  C 
  H421     1.0000 0.24164  0.46569  0.47278  Biso   1.000  H 
  H422     1.0000 0.25925  0.40694  0.44593  Biso   1.000  H 
  C395     1.0000 0.31013  0.43437  0.56537  Biso   1.000  C 
  H423     1.0000 0.32745  0.46223  0.49139  Biso   1.000  H 
  H424     1.0000 0.32809  0.39656  0.49652  Biso   1.000  H 
  H425     1.0000 0.27415  0.44842  0.57928  Biso   1.000  H 
  C396     1.0000 0.35116  0.46854  0.58744  Biso   1.000  C 
  H426     1.0000 0.31606  0.39642  0.58035  Biso   1.000  H 
  H427     1.0000 0.38819  0.46242  0.57047  Biso   1.000  H 
  H428     1.0000 0.35394  0.46045  0.62779  Biso   1.000  H 
  H429     1.0000 0.34030  0.50822  0.58336  Biso   1.000  H 
  H430     1.0000 0.10851  0.96935  0.58770  Biso   1.000  H 
  H431     1.0000 0.16444  0.97953  0.62575  Biso   1.000  H 
  H432     1.0000 0.16692  0.94733  0.56676  Biso   1.000  H 
  O141     1.0000 0.92810  0.36740  0.50000  Biso   1.000  O 
  C397     1.0000 0.88280  0.38280  0.50000  Biso   1.000  C 
  O142     1.0000 0.86740  0.42810  0.50000  Biso   1.000  O 
  C398     1.0000 0.84350  0.34350  0.50000  Biso   1.000  C 
  C399     1.0000 0.85530  0.29420  0.50000  Biso   1.000  C 
  C400     1.0000 0.79420  0.35530  0.50000  Biso   1.000  C 
  C401     1.0000 0.82050  0.25800  0.50000  Biso   1.000  C 
  H433     1.0000 0.88860  0.28510  0.50000  Biso   1.000  H 
  C402     1.0000 0.75800  0.32050  0.50000  Biso   1.000  C 
  O143     1.0000 0.78060  0.40678  0.48614  Biso   1.000  O 
  C403     1.0000 0.76930  0.26930  0.50000  Biso   1.000  C 
  C404     1.0000 0.73070  0.23070  0.50000  Biso   1.000  C 
  H434     1.0000 0.83050  0.22490  0.50000  Biso   1.000  H 
  C405     1.0000 0.74200  0.17950  0.50000  Biso   1.000  C 
  H435     1.0000 0.72490  0.33050  0.50000  Biso   1.000  H 
  C406     1.0000 0.67950  0.24200  0.50000  Biso   1.000  C 
  C407     1.0000 0.70580  0.14470  0.50000  Biso   1.000  C 
  H436     1.0000 0.77510  0.16950  0.50000  Biso   1.000  H 
  C408     1.0000 0.64470  0.20580  0.50000  Biso   1.000  C 
  H437     1.0000 0.66950  0.27510  0.50000  Biso   1.000  H 
  C409     1.0000 0.65650  0.15650  0.50000  Biso   1.000  C 
  C410     1.0000 0.61720  0.11720  0.50000  Biso   1.000  C 
  O144     1.0000 0.71972  0.09730  0.47762  Biso   1.000  O 
  H438     1.0000 0.61140  0.21490  0.50000  Biso   1.000  H 
  O145     1.0000 0.63260  0.07190  0.50000  Biso   1.000  O 
  O146     1.0000 0.57190  0.13260  0.50000  Biso   1.000  O 
  C411     1.0000 0.76987  0.07871  0.48613  Biso   1.000  C 
  C412     1.0000 0.74494  0.42773  0.51839  Biso   1.000  C 
  C413     1.0000 0.78037  0.03932  0.44683  Biso   1.000  C 
  H439     1.0000 0.77171  0.06677  0.52441  Biso   1.000  H 
  H440     1.0000 0.80123  0.10605  0.47855  Biso   1.000  H 
  H441     1.0000 0.75939  0.00848  0.45874  Biso   1.000  H 
  C414     1.0000 0.83686  0.02741  0.43924  Biso   1.000  C 
  H442     1.0000 0.76683  0.05541  0.41099  Biso   1.000  H 
  C415     1.0000 0.85088  0.97761  0.41136  Biso   1.000  C 
  H443     1.0000 0.85632  0.03207  0.47544  Biso   1.000  H 
  H444     1.0000 0.84929  0.05659  0.41365  Biso   1.000  H 
  C416     1.0000 0.69287  0.43097  0.49246  Biso   1.000  C 
  H445     1.0000 0.75835  0.46569  0.52722  Biso   1.000  H 
  H446     1.0000 0.74075  0.40694  0.55407  Biso   1.000  H 
  C417     1.0000 0.68987  0.43437  0.43463  Biso   1.000  C 
  H447     1.0000 0.67255  0.46223  0.50861  Biso   1.000  H 
  H448     1.0000 0.67191  0.39656  0.50348  Biso   1.000  H 
  H449     1.0000 0.72584  0.44842  0.42072  Biso   1.000  H 
  C418     1.0000 0.64884  0.46854  0.41256  Biso   1.000  C 
  H450     1.0000 0.68394  0.39642  0.41965  Biso   1.000  H 
  H451     1.0000 0.61181  0.46242  0.42953  Biso   1.000  H 
  H452     1.0000 0.64606  0.46045  0.37221  Biso   1.000  H 
  H453     1.0000 0.65970  0.50822  0.41664  Biso   1.000  H 
  H454     1.0000 0.89149  0.96935  0.41230  Biso   1.000  H 
  H455     1.0000 0.83556  0.97953  0.37425  Biso   1.000  H 
  H456     1.0000 0.83308  0.94733  0.43323  Biso   1.000  H 
  O147     1.0000 0.92810  0.63260  0.50000  Biso   1.000  O 
  C419     1.0000 0.88280  0.61720  0.50000  Biso   1.000  C 
  O148     1.0000 0.86740  0.57190  0.50000  Biso   1.000  O 
  C420     1.0000 0.84350  0.65650  0.50000  Biso   1.000  C 
  C421     1.0000 0.85530  0.70580  0.50000  Biso   1.000  C 
  C422     1.0000 0.79420  0.64470  0.50000  Biso   1.000  C 
  C423     1.0000 0.82050  0.74200  0.50000  Biso   1.000  C 
  H457     1.0000 0.88860  0.71490  0.50000  Biso   1.000  H 
  C424     1.0000 0.75800  0.67950  0.50000  Biso   1.000  C 
  O149     1.0000 0.78060  0.59322  0.51386  Biso   1.000  O 
  C425     1.0000 0.76930  0.73070  0.50000  Biso   1.000  C 
  C426     1.0000 0.73070  0.76930  0.50000  Biso   1.000  C 
  H458     1.0000 0.83050  0.77510  0.50000  Biso   1.000  H 
  C427     1.0000 0.74200  0.82050  0.50000  Biso   1.000  C 
  H459     1.0000 0.72490  0.66950  0.50000  Biso   1.000  H 
  C428     1.0000 0.67950  0.75800  0.50000  Biso   1.000  C 
  C429     1.0000 0.70580  0.85530  0.50000  Biso   1.000  C 
  H460     1.0000 0.77510  0.83050  0.50000  Biso   1.000  H 
  C430     1.0000 0.64470  0.79420  0.50000  Biso   1.000  C 
  H461     1.0000 0.66950  0.72490  0.50000  Biso   1.000  H 
  C431     1.0000 0.65650  0.84350  0.50000  Biso   1.000  C 
  C432     1.0000 0.61720  0.88280  0.50000  Biso   1.000  C 
  O150     1.0000 0.71972  0.90270  0.52238  Biso   1.000  O 
  H462     1.0000 0.61140  0.78510  0.50000  Biso   1.000  H 
  O151     1.0000 0.63260  0.92810  0.50000  Biso   1.000  O 
  O152     1.0000 0.57190  0.86740  0.50000  Biso   1.000  O 
  C433     1.0000 0.76987  0.92129  0.51387  Biso   1.000  C 
  C434     1.0000 0.74494  0.57227  0.48161  Biso   1.000  C 
  C435     1.0000 0.78037  0.96068  0.55317  Biso   1.000  C 
  H463     1.0000 0.77171  0.93323  0.47559  Biso   1.000  H 
  H464     1.0000 0.80123  0.89395  0.52145  Biso   1.000  H 
  H465     1.0000 0.75939  0.99152  0.54126  Biso   1.000  H 
  C436     1.0000 0.83686  0.97259  0.56076  Biso   1.000  C 
  H466     1.0000 0.76683  0.94459  0.58901  Biso   1.000  H 
  C437     1.0000 0.85088  0.02239  0.58864  Biso   1.000  C 
  H467     1.0000 0.85632  0.96793  0.52456  Biso   1.000  H 
  H468     1.0000 0.84929  0.94341  0.58635  Biso   1.000  H 
  C438     1.0000 0.69287  0.56903  0.50754  Biso   1.000  C 
  H469     1.0000 0.75835  0.53431  0.47278  Biso   1.000  H 
  H470     1.0000 0.74075  0.59306  0.44593  Biso   1.000  H 
  C439     1.0000 0.68987  0.56563  0.56537  Biso   1.000  C 
  H471     1.0000 0.67255  0.53777  0.49139  Biso   1.000  H 
  H472     1.0000 0.67191  0.60344  0.49652  Biso   1.000  H 
  H473     1.0000 0.72584  0.55158  0.57928  Biso   1.000  H 
  C440     1.0000 0.64884  0.53146  0.58744  Biso   1.000  C 
  H474     1.0000 0.68394  0.60358  0.58035  Biso   1.000  H 
  H475     1.0000 0.61181  0.53758  0.57047  Biso   1.000  H 
  H476     1.0000 0.64606  0.53955  0.62779  Biso   1.000  H 
  H477     1.0000 0.65970  0.49178  0.58336  Biso   1.000  H 
  H478     1.0000 0.89149  0.03065  0.58770  Biso   1.000  H 
  H479     1.0000 0.83556  0.02047  0.62575  Biso   1.000  H 
  H480     1.0000 0.83308  0.05268  0.56677  Biso   1.000  H 
  O153     1.0000 0.50000  0.07190  0.63260  Biso   1.000  O 
  C441     1.0000 0.50000  0.11720  0.61720  Biso   1.000  C 
  O154     1.0000 0.50000  0.13260  0.57190  Biso   1.000  O 
  C442     1.0000 0.50000  0.15650  0.65650  Biso   1.000  C 
  C443     1.0000 0.50000  0.14470  0.70580  Biso   1.000  C 
  C444     1.0000 0.50000  0.20580  0.64470  Biso   1.000  C 
  C445     1.0000 0.50000  0.17950  0.74200  Biso   1.000  C 
  H481     1.0000 0.50000  0.11140  0.71490  Biso   1.000  H 
  C446     1.0000 0.50000  0.24200  0.67950  Biso   1.000  C 
  O155     1.0000 0.48481  0.21913  0.59487  Biso   1.000  O 
  C447     1.0000 0.50000  0.23070  0.73070  Biso   1.000  C 
  C448     1.0000 0.50000  0.26930  0.76930  Biso   1.000  C 
  H482     1.0000 0.50000  0.16950  0.77510  Biso   1.000  H 
  C449     1.0000 0.50000  0.25800  0.82050  Biso   1.000  C 
  H483     1.0000 0.50000  0.27510  0.66950  Biso   1.000  H 
  C450     1.0000 0.50000  0.32050  0.75800  Biso   1.000  C 
  C451     1.0000 0.50000  0.29420  0.85530  Biso   1.000  C 
  H484     1.0000 0.50000  0.22490  0.83050  Biso   1.000  H 
  C452     1.0000 0.50000  0.35530  0.79420  Biso   1.000  C 
  H485     1.0000 0.50000  0.33050  0.72490  Biso   1.000  H 
  C453     1.0000 0.50000  0.34350  0.84350  Biso   1.000  C 
  C454     1.0000 0.50000  0.38280  0.88280  Biso   1.000  C 
  O156     1.0000 0.49292  0.27900  0.90707  Biso   1.000  O 
  H486     1.0000 0.50000  0.38860  0.78510  Biso   1.000  H 
  O157     1.0000 0.50000  0.36740  0.92810  Biso   1.000  O 
  O158     1.0000 0.50000  0.42810  0.86740  Biso   1.000  O 
  C455     1.0000 0.44033  0.27538  0.91279  Biso   1.000  C 
  C456     1.0000 0.51900  0.25288  0.57448  Biso   1.000  C 
  C457     1.0000 0.43890  0.22885  0.94443  Biso   1.000  C 
  H487     1.0000 0.42026  0.26700  0.87719  Biso   1.000  H 
  H488     1.0000 0.42304  0.30737  0.92956  Biso   1.000  H 
  H489     1.0000 0.45991  0.23480  0.97874  Biso   1.000  H 
  C458     1.0000 0.46279  0.18099  0.92136  Biso   1.000  C 
  H490     1.0000 0.40054  0.22107  0.95159  Biso   1.000  H 
  C459     1.0000 0.44170  0.13482  0.94786  Biso   1.000  C 
  H491     1.0000 0.50373  0.18443  0.92342  Biso   1.000  H 
  H492     1.0000 0.45555  0.17492  0.88147  Biso   1.000  H 
  C460     1.0000 0.49571  0.30446  0.57191  Biso   1.000  C 
  H493     1.0000 0.52834  0.23868  0.53691  Biso   1.000  H 
  H494     1.0000 0.55429  0.25615  0.59587  Biso   1.000  H 
  C461     1.0000 0.44345  0.30222  0.55012  Biso   1.000  C 
  H495     1.0000 0.52033  0.32822  0.54814  Biso   1.000  H 
  H496     1.0000 0.49426  0.32261  0.60934  Biso   1.000  H 
  H497     1.0000 0.44464  0.28934  0.51231  Biso   1.000  H 
  C462     1.0000 0.41655  0.35216  0.55161  Biso   1.000  C 
  H498     1.0000 0.42135  0.27379  0.57066  Biso   1.000  H 
  H499     1.0000 0.42678  0.37364  0.58462  Biso   1.000  H 
  H500     1.0000 0.37623  0.34386  0.55130  Biso   1.000  H 
  H501     1.0000 0.42497  0.37364  0.51749  Biso   1.000  H 
  H502     1.0000 0.45885  0.12767  0.98324  Biso   1.000  H 
  H503     1.0000 0.45145  0.10352  0.92321  Biso   1.000  H 
  H504     1.0000 0.40073  0.13596  0.95335  Biso   1.000  H 
  O159     1.0000 0.50000  0.07190  0.36740  Biso   1.000  O 
  C463     1.0000 0.50000  0.11720  0.38280  Biso   1.000  C 
  O160     1.0000 0.50000  0.13260  0.42810  Biso   1.000  O 
  C464     1.0000 0.50000  0.15650  0.34350  Biso   1.000  C 
  C465     1.0000 0.50000  0.14470  0.29420  Biso   1.000  C 
  C466     1.0000 0.50000  0.20580  0.35530  Biso   1.000  C 
  C467     1.0000 0.50000  0.17950  0.25800  Biso   1.000  C 
  H505     1.0000 0.50000  0.11140  0.28510  Biso   1.000  H 
  C468     1.0000 0.50000  0.24200  0.32050  Biso   1.000  C 
  O161     1.0000 0.51519  0.21913  0.40513  Biso   1.000  O 
  C469     1.0000 0.50000  0.23070  0.26930  Biso   1.000  C 
  C470     1.0000 0.50000  0.26930  0.23070  Biso   1.000  C 
  H506     1.0000 0.50000  0.16950  0.22490  Biso   1.000  H 
  C471     1.0000 0.50000  0.25800  0.17950  Biso   1.000  C 
  H507     1.0000 0.50000  0.27510  0.33050  Biso   1.000  H 
  C472     1.0000 0.50000  0.32050  0.24200  Biso   1.000  C 
  C473     1.0000 0.50000  0.29420  0.14470  Biso   1.000  C 
  H508     1.0000 0.50000  0.22490  0.16950  Biso   1.000  H 
  C474     1.0000 0.50000  0.35530  0.20580  Biso   1.000  C 
  H509     1.0000 0.50000  0.33050  0.27510  Biso   1.000  H 
  C475     1.0000 0.50000  0.34350  0.15650  Biso   1.000  C 
  C476     1.0000 0.50000  0.38280  0.11720  Biso   1.000  C 
  O162     1.0000 0.50708  0.27900  0.09293  Biso   1.000  O 
  H510     1.0000 0.50000  0.38860  0.21490  Biso   1.000  H 
  O163     1.0000 0.50000  0.36740  0.07190  Biso   1.000  O 
  O164     1.0000 0.50000  0.42810  0.13260  Biso   1.000  O 
  C477     1.0000 0.55967  0.27538  0.08721  Biso   1.000  C 
  C478     1.0000 0.48100  0.25288  0.42552  Biso   1.000  C 
  C479     1.0000 0.56110  0.22885  0.05557  Biso   1.000  C 
  H511     1.0000 0.57974  0.26700  0.12281  Biso   1.000  H 
  H512     1.0000 0.57696  0.30737  0.07044  Biso   1.000  H 
  H513     1.0000 0.54009  0.23480  0.02125  Biso   1.000  H 
  C480     1.0000 0.53721  0.18099  0.07864  Biso   1.000  C 
  H514     1.0000 0.59946  0.22107  0.04841  Biso   1.000  H 
  C481     1.0000 0.55830  0.13482  0.05214  Biso   1.000  C 
  H515     1.0000 0.49627  0.18443  0.07659  Biso   1.000  H 
  H516     1.0000 0.54445  0.17492  0.11853  Biso   1.000  H 
  C482     1.0000 0.50429  0.30446  0.42809  Biso   1.000  C 
  H517     1.0000 0.47166  0.23868  0.46309  Biso   1.000  H 
  H518     1.0000 0.44571  0.25615  0.40413  Biso   1.000  H 
  C483     1.0000 0.55655  0.30222  0.44988  Biso   1.000  C 
  H519     1.0000 0.47967  0.32822  0.45186  Biso   1.000  H 
  H520     1.0000 0.50574  0.32261  0.39066  Biso   1.000  H 
  H521     1.0000 0.55536  0.28934  0.48769  Biso   1.000  H 
  C484     1.0000 0.58345  0.35216  0.44839  Biso   1.000  C 
  H522     1.0000 0.57865  0.27379  0.42934  Biso   1.000  H 
  H523     1.0000 0.57322  0.37364  0.41538  Biso   1.000  H 
  H524     1.0000 0.62377  0.34386  0.44870  Biso   1.000  H 
  H525     1.0000 0.57503  0.37364  0.48251  Biso   1.000  H 
  H526     1.0000 0.54115  0.12767  0.01676  Biso   1.000  H 
  H527     1.0000 0.54855  0.10352  0.07679  Biso   1.000  H 
  H528     1.0000 0.59927  0.13596  0.04665  Biso   1.000  H 
  O165     1.0000 0.50000  0.92810  0.36740  Biso   1.000  O 
  C485     1.0000 0.50000  0.88280  0.38280  Biso   1.000  C 
  O166     1.0000 0.50000  0.86740  0.42810  Biso   1.000  O 
  C486     1.0000 0.50000  0.84350  0.34350  Biso   1.000  C 
  C487     1.0000 0.50000  0.85530  0.29420  Biso   1.000  C 
  C488     1.0000 0.50000  0.79420  0.35530  Biso   1.000  C 
  C489     1.0000 0.50000  0.82050  0.25800  Biso   1.000  C 
  H529     1.0000 0.50000  0.88860  0.28510  Biso   1.000  H 
  C490     1.0000 0.50000  0.75800  0.32050  Biso   1.000  C 
  O167     1.0000 0.48481  0.78087  0.40513  Biso   1.000  O 
  C491     1.0000 0.50000  0.76930  0.26930  Biso   1.000  C 
  C492     1.0000 0.50000  0.73070  0.23070  Biso   1.000  C 
  H530     1.0000 0.50000  0.83050  0.22490  Biso   1.000  H 
  C493     1.0000 0.50000  0.74200  0.17950  Biso   1.000  C 
  H531     1.0000 0.50000  0.72490  0.33050  Biso   1.000  H 
  C494     1.0000 0.50000  0.67950  0.24200  Biso   1.000  C 
  C495     1.0000 0.50000  0.70580  0.14470  Biso   1.000  C 
  H532     1.0000 0.50000  0.77510  0.16950  Biso   1.000  H 
  C496     1.0000 0.50000  0.64470  0.20580  Biso   1.000  C 
  H533     1.0000 0.50000  0.66950  0.27510  Biso   1.000  H 
  C497     1.0000 0.50000  0.65650  0.15650  Biso   1.000  C 
  C498     1.0000 0.50000  0.61720  0.11720  Biso   1.000  C 
  O168     1.0000 0.49292  0.72100  0.09293  Biso   1.000  O 
  H534     1.0000 0.50000  0.61140  0.21490  Biso   1.000  H 
  O169     1.0000 0.50000  0.63260  0.07190  Biso   1.000  O 
  O170     1.0000 0.50000  0.57190  0.13260  Biso   1.000  O 
  C499     1.0000 0.44033  0.72462  0.08721  Biso   1.000  C 
  C500     1.0000 0.51900  0.74712  0.42552  Biso   1.000  C 
  C501     1.0000 0.43890  0.77115  0.05557  Biso   1.000  C 
  H535     1.0000 0.42026  0.73300  0.12281  Biso   1.000  H 
  H536     1.0000 0.42304  0.69263  0.07044  Biso   1.000  H 
  H537     1.0000 0.45991  0.76520  0.02125  Biso   1.000  H 
  C502     1.0000 0.46279  0.81901  0.07864  Biso   1.000  C 
  H538     1.0000 0.40054  0.77893  0.04841  Biso   1.000  H 
  C503     1.0000 0.44170  0.86518  0.05214  Biso   1.000  C 
  H539     1.0000 0.50373  0.81557  0.07659  Biso   1.000  H 
  H540     1.0000 0.45555  0.82507  0.11853  Biso   1.000  H 
  C504     1.0000 0.49571  0.69554  0.42809  Biso   1.000  C 
  H541     1.0000 0.52834  0.76131  0.46309  Biso   1.000  H 
  H542     1.0000 0.55429  0.74385  0.40413  Biso   1.000  H 
  C505     1.0000 0.44345  0.69778  0.44988  Biso   1.000  C 
  H543     1.0000 0.52033  0.67178  0.45186  Biso   1.000  H 
  H544     1.0000 0.49426  0.67739  0.39066  Biso   1.000  H 
  H545     1.0000 0.44464  0.71066  0.48769  Biso   1.000  H 
  C506     1.0000 0.41655  0.64784  0.44839  Biso   1.000  C 
  H546     1.0000 0.42135  0.72620  0.42934  Biso   1.000  H 
  H547     1.0000 0.42678  0.62636  0.41538  Biso   1.000  H 
  H548     1.0000 0.37623  0.65614  0.44870  Biso   1.000  H 
  H549     1.0000 0.42497  0.62636  0.48251  Biso   1.000  H 
  H550     1.0000 0.45885  0.87233  0.01676  Biso   1.000  H 
  H551     1.0000 0.45145  0.89648  0.07679  Biso   1.000  H 
  H552     1.0000 0.40073  0.86404  0.04665  Biso   1.000  H 
  O171     1.0000 0.50000  0.92810  0.63260  Biso   1.000  O 
  C507     1.0000 0.50000  0.88280  0.61720  Biso   1.000  C 
  O172     1.0000 0.50000  0.86740  0.57190  Biso   1.000  O 
  C508     1.0000 0.50000  0.84350  0.65650  Biso   1.000  C 
  C509     1.0000 0.50000  0.85530  0.70580  Biso   1.000  C 
  C510     1.0000 0.50000  0.79420  0.64470  Biso   1.000  C 
  C511     1.0000 0.50000  0.82050  0.74200  Biso   1.000  C 
  H553     1.0000 0.50000  0.88860  0.71490  Biso   1.000  H 
  C512     1.0000 0.50000  0.75800  0.67950  Biso   1.000  C 
  O173     1.0000 0.51519  0.78087  0.59487  Biso   1.000  O 
  C513     1.0000 0.50000  0.76930  0.73070  Biso   1.000  C 
  C514     1.0000 0.50000  0.73070  0.76930  Biso   1.000  C 
  H554     1.0000 0.50000  0.83050  0.77510  Biso   1.000  H 
  C515     1.0000 0.50000  0.74200  0.82050  Biso   1.000  C 
  H555     1.0000 0.50000  0.72490  0.66950  Biso   1.000  H 
  C516     1.0000 0.50000  0.67950  0.75800  Biso   1.000  C 
  C517     1.0000 0.50000  0.70580  0.85530  Biso   1.000  C 
  H556     1.0000 0.50000  0.77510  0.83050  Biso   1.000  H 
  C518     1.0000 0.50000  0.64470  0.79420  Biso   1.000  C 
  H557     1.0000 0.50000  0.66950  0.72490  Biso   1.000  H 
  C519     1.0000 0.50000  0.65650  0.84350  Biso   1.000  C 
  C520     1.0000 0.50000  0.61720  0.88280  Biso   1.000  C 
  O174     1.0000 0.50708  0.72100  0.90707  Biso   1.000  O 
  H558     1.0000 0.50000  0.61140  0.78510  Biso   1.000  H 
  O175     1.0000 0.50000  0.63260  0.92810  Biso   1.000  O 
  O176     1.0000 0.50000  0.57190  0.86740  Biso   1.000  O 
  C521     1.0000 0.55967  0.72462  0.91279  Biso   1.000  C 
  C522     1.0000 0.48100  0.74712  0.57448  Biso   1.000  C 
  C523     1.0000 0.56110  0.77115  0.94443  Biso   1.000  C 
  H559     1.0000 0.57974  0.73300  0.87719  Biso   1.000  H 
  H560     1.0000 0.57696  0.69263  0.92956  Biso   1.000  H 
  H561     1.0000 0.54009  0.76520  0.97874  Biso   1.000  H 
  C524     1.0000 0.53721  0.81901  0.92136  Biso   1.000  C 
  H562     1.0000 0.59946  0.77893  0.95159  Biso   1.000  H 
  C525     1.0000 0.55830  0.86518  0.94786  Biso   1.000  C 
  H563     1.0000 0.49627  0.81557  0.92341  Biso   1.000  H 
  H564     1.0000 0.54445  0.82507  0.88147  Biso   1.000  H 
  C526     1.0000 0.50429  0.69554  0.57191  Biso   1.000  C 
  H565     1.0000 0.47166  0.76131  0.53691  Biso   1.000  H 
  H566     1.0000 0.44571  0.74385  0.59587  Biso   1.000  H 
  C527     1.0000 0.55655  0.69778  0.55012  Biso   1.000  C 
  H567     1.0000 0.47967  0.67178  0.54814  Biso   1.000  H 
  H568     1.0000 0.50574  0.67739  0.60934  Biso   1.000  H 
  H569     1.0000 0.55536  0.71066  0.51231  Biso   1.000  H 
  C528     1.0000 0.58345  0.64784  0.55161  Biso   1.000  C 
  H570     1.0000 0.57865  0.72620  0.57066  Biso   1.000  H 
  H571     1.0000 0.57322  0.62636  0.58462  Biso   1.000  H 
  H572     1.0000 0.62377  0.65614  0.55130  Biso   1.000  H 
  H573     1.0000 0.57503  0.62636  0.51749  Biso   1.000  H 
  H574     1.0000 0.54115  0.87233  0.98324  Biso   1.000  H 
  H575     1.0000 0.54855  0.89648  0.92321  Biso   1.000  H 
  H576     1.0000 0.59927  0.86404  0.95335  Biso   1.000  H 
