data_image0
_cell_length_a       26.896
_cell_length_b       26.896
_cell_length_c       26.896
_cell_angle_alpha    90
_cell_angle_beta     90
_cell_angle_gamma    90

_symmetry_space_group_name_H-M    "P 1"
_symmetry_int_tables_number       1

loop_
  _symmetry_equiv_pos_as_xyz
  'x, y, z'

loop_
  _atom_site_label
  _atom_site_occupancy
  _atom_site_fract_x
  _atom_site_fract_y
  _atom_site_fract_z
  _atom_site_thermal_displace_type
  _atom_site_B_iso_or_equiv
  _atom_site_type_symbol
  Zr1      1.0000 0.09204  0.00000  0.00000  Biso   1.000  Zr
  Zr2      1.0000 0.90796  0.00000  0.00000  Biso   1.000  Zr
  Zr3      1.0000 0.00000  0.09204  0.00000  Biso   1.000  Zr
  Zr4      1.0000 0.00000  0.90796  0.00000  Biso   1.000  Zr
  Zr5      1.0000 0.00000  0.00000  0.09204  Biso   1.000  Zr
  Zr6      1.0000 0.00000  0.00000  0.90796  Biso   1.000  Zr
  Zr7      1.0000 0.09204  0.50000  0.50000  Biso   1.000  Zr
  Zr8      1.0000 0.90796  0.50000  0.50000  Biso   1.000  Zr
  Zr9      1.0000 0.00000  0.59204  0.50000  Biso   1.000  Zr
  Zr10     1.0000 0.00000  0.40796  0.50000  Biso   1.000  Zr
  Zr11     1.0000 0.00000  0.50000  0.59204  Biso   1.000  Zr
  Zr12     1.0000 0.00000  0.50000  0.40796  Biso   1.000  Zr
  Zr13     1.0000 0.59204  0.00000  0.50000  Biso   1.000  Zr
  Zr14     1.0000 0.40796  0.00000  0.50000  Biso   1.000  Zr
  Zr15     1.0000 0.50000  0.09204  0.50000  Biso   1.000  Zr
  Zr16     1.0000 0.50000  0.90796  0.50000  Biso   1.000  Zr
  Zr17     1.0000 0.50000  0.00000  0.59204  Biso   1.000  Zr
  Zr18     1.0000 0.50000  0.00000  0.40796  Biso   1.000  Zr
  Zr19     1.0000 0.59204  0.50000  0.00000  Biso   1.000  Zr
  Zr20     1.0000 0.40796  0.50000  0.00000  Biso   1.000  Zr
  Zr21     1.0000 0.50000  0.59204  0.00000  Biso   1.000  Zr
  Zr22     1.0000 0.50000  0.40796  0.00000  Biso   1.000  Zr
  Zr23     1.0000 0.50000  0.50000  0.09204  Biso   1.000  Zr
  Zr24     1.0000 0.50000  0.50000  0.90796  Biso   1.000  Zr
  O1       1.0000 0.04540  0.04540  0.04540  Biso   1.000  O 
  O2       1.0000 0.95460  0.95460  0.04540  Biso   1.000  O 
  O3       1.0000 0.95460  0.04540  0.95460  Biso   1.000  O 
  O4       1.0000 0.04540  0.95460  0.95460  Biso   1.000  O 
  O5       1.0000 0.04540  0.04540  0.95460  Biso   1.000  O 
  O6       1.0000 0.95460  0.95460  0.95460  Biso   1.000  O 
  O7       1.0000 0.04540  0.95460  0.04540  Biso   1.000  O 
  O8       1.0000 0.95460  0.04540  0.04540  Biso   1.000  O 
  O9       1.0000 0.04540  0.54540  0.54540  Biso   1.000  O 
  O10      1.0000 0.95460  0.45460  0.54540  Biso   1.000  O 
  O11      1.0000 0.95460  0.54540  0.45460  Biso   1.000  O 
  O12      1.0000 0.04540  0.45460  0.45460  Biso   1.000  O 
  O13      1.0000 0.04540  0.54540  0.45460  Biso   1.000  O 
  O14      1.0000 0.95460  0.45460  0.45460  Biso   1.000  O 
  O15      1.0000 0.04540  0.45460  0.54540  Biso   1.000  O 
  O16      1.0000 0.95460  0.54540  0.54540  Biso   1.000  O 
  O17      1.0000 0.54540  0.04540  0.54540  Biso   1.000  O 
  O18      1.0000 0.45460  0.95460  0.54540  Biso   1.000  O 
  O19      1.0000 0.45460  0.04540  0.45460  Biso   1.000  O 
  O20      1.0000 0.54540  0.95460  0.45460  Biso   1.000  O 
  O21      1.0000 0.54540  0.04540  0.45460  Biso   1.000  O 
  O22      1.0000 0.45460  0.95460  0.45460  Biso   1.000  O 
  O23      1.0000 0.54540  0.95460  0.54540  Biso   1.000  O 
  O24      1.0000 0.45460  0.04540  0.54540  Biso   1.000  O 
  O25      1.0000 0.54540  0.54540  0.04540  Biso   1.000  O 
  O26      1.0000 0.45460  0.45460  0.04540  Biso   1.000  O 
  O27      1.0000 0.45460  0.54540  0.95460  Biso   1.000  O 
  O28      1.0000 0.54540  0.45460  0.95460  Biso   1.000  O 
  O29      1.0000 0.54540  0.54540  0.95460  Biso   1.000  O 
  O30      1.0000 0.45460  0.45460  0.95460  Biso   1.000  O 
  O31      1.0000 0.54540  0.45460  0.04540  Biso   1.000  O 
  O32      1.0000 0.45460  0.54540  0.04540  Biso   1.000  O 
  O33      1.0000 0.13260  0.00000  0.07190  Biso   1.000  O 
  C1       1.0000 0.11720  0.00000  0.11720  Biso   1.000  C 
  O34      1.0000 0.07190  0.00000  0.13260  Biso   1.000  O 
  C2       1.0000 0.15650  0.00000  0.15650  Biso   1.000  C 
  C3       1.0000 0.20580  0.00000  0.14470  Biso   1.000  C 
  C4       1.0000 0.14470  0.00000  0.20580  Biso   1.000  C 
  C5       1.0000 0.24200  0.00000  0.17950  Biso   1.000  C 
  H1       1.0000 0.21490  0.00000  0.11140  Biso   1.000  H 
  C6       1.0000 0.17950  0.00000  0.24200  Biso   1.000  C 
  H2       1.0000 0.11140  0.00000  0.21490  Biso   1.000  H 
  C7       1.0000 0.23070  0.00000  0.23070  Biso   1.000  C 
  C8       1.0000 0.26930  0.00000  0.26930  Biso   1.000  C 
  H3       1.0000 0.27510  0.00000  0.16950  Biso   1.000  H 
  C9       1.0000 0.32050  0.00000  0.25800  Biso   1.000  C 
  H4       1.0000 0.16950  0.00000  0.27510  Biso   1.000  H 
  C10      1.0000 0.25800  0.00000  0.32050  Biso   1.000  C 
  C11      1.0000 0.35530  0.00000  0.29420  Biso   1.000  C 
  H5       1.0000 0.33050  0.00000  0.22490  Biso   1.000  H 
  C12      1.0000 0.29420  0.00000  0.35530  Biso   1.000  C 
  H6       1.0000 0.22490  0.00000  0.33050  Biso   1.000  H 
  C13      1.0000 0.34350  0.00000  0.34350  Biso   1.000  C 
  C14      1.0000 0.38280  0.00000  0.38280  Biso   1.000  C 
  O35      1.0000 0.40755  0.99928  0.27878  Biso   1.000  O 
  H7       1.0000 0.28510  0.00000  0.38860  Biso   1.000  H 
  O36      1.0000 0.42810  0.00000  0.36740  Biso   1.000  O 
  O37      1.0000 0.36740  0.00000  0.42810  Biso   1.000  O 
  H8       1.0000 0.42149  0.03364  0.28004  Biso   1.000  H 
  O38      1.0000 0.86740  0.00000  0.07190  Biso   1.000  O 
  C15      1.0000 0.88280  0.00000  0.11720  Biso   1.000  C 
  O39      1.0000 0.92810  0.00000  0.13260  Biso   1.000  O 
  C16      1.0000 0.84350  0.00000  0.15650  Biso   1.000  C 
  C17      1.0000 0.79420  0.00000  0.14470  Biso   1.000  C 
  C18      1.0000 0.85530  0.00000  0.20580  Biso   1.000  C 
  C19      1.0000 0.75800  0.00000  0.17950  Biso   1.000  C 
  H9       1.0000 0.78510  0.00000  0.11140  Biso   1.000  H 
  C20      1.0000 0.82050  0.00000  0.24200  Biso   1.000  C 
  H10      1.0000 0.88860  0.00000  0.21490  Biso   1.000  H 
  C21      1.0000 0.76930  0.00000  0.23070  Biso   1.000  C 
  C22      1.0000 0.73070  0.00000  0.26930  Biso   1.000  C 
  H11      1.0000 0.72490  0.00000  0.16950  Biso   1.000  H 
  C23      1.0000 0.67950  0.00000  0.25800  Biso   1.000  C 
  H12      1.0000 0.83050  0.00000  0.27510  Biso   1.000  H 
  C24      1.0000 0.74200  0.00000  0.32050  Biso   1.000  C 
  C25      1.0000 0.64470  0.00000  0.29420  Biso   1.000  C 
  H13      1.0000 0.66950  0.00000  0.22490  Biso   1.000  H 
  C26      1.0000 0.70580  0.00000  0.35530  Biso   1.000  C 
  H14      1.0000 0.77510  0.00000  0.33050  Biso   1.000  H 
  C27      1.0000 0.65650  0.00000  0.34350  Biso   1.000  C 
  C28      1.0000 0.61720  0.00000  0.38280  Biso   1.000  C 
  O40      1.0000 0.59244  0.99931  0.27882  Biso   1.000  O 
  H15      1.0000 0.71490  0.00000  0.38860  Biso   1.000  H 
  O41      1.0000 0.57190  0.00000  0.36740  Biso   1.000  O 
  O42      1.0000 0.63260  0.00000  0.42810  Biso   1.000  O 
  H16      1.0000 0.57806  0.03339  0.28148  Biso   1.000  H 
  O43      1.0000 0.86740  0.00000  0.92810  Biso   1.000  O 
  C29      1.0000 0.88280  0.00000  0.88280  Biso   1.000  C 
  O44      1.0000 0.92810  0.00000  0.86740  Biso   1.000  O 
  C30      1.0000 0.84350  0.00000  0.84350  Biso   1.000  C 
  C31      1.0000 0.79420  0.00000  0.85530  Biso   1.000  C 
  C32      1.0000 0.85530  0.00000  0.79420  Biso   1.000  C 
  C33      1.0000 0.75800  0.00000  0.82050  Biso   1.000  C 
  H17      1.0000 0.78510  0.00000  0.88860  Biso   1.000  H 
  C34      1.0000 0.82050  0.00000  0.75800  Biso   1.000  C 
  H18      1.0000 0.88860  0.00000  0.78510  Biso   1.000  H 
  C35      1.0000 0.76930  0.00000  0.76930  Biso   1.000  C 
  C36      1.0000 0.73070  0.00000  0.73070  Biso   1.000  C 
  H19      1.0000 0.72490  0.00000  0.83050  Biso   1.000  H 
  C37      1.0000 0.67950  0.00000  0.74200  Biso   1.000  C 
  H20      1.0000 0.83050  0.00000  0.72490  Biso   1.000  H 
  C38      1.0000 0.74200  0.00000  0.67950  Biso   1.000  C 
  C39      1.0000 0.64470  0.00000  0.70580  Biso   1.000  C 
  H21      1.0000 0.66950  0.00000  0.77510  Biso   1.000  H 
  C40      1.0000 0.70580  0.00000  0.64470  Biso   1.000  C 
  H22      1.0000 0.77510  0.00000  0.66950  Biso   1.000  H 
  C41      1.0000 0.65650  0.00000  0.65650  Biso   1.000  C 
  C42      1.0000 0.61720  0.00000  0.61720  Biso   1.000  C 
  O45      1.0000 0.59252  0.99915  0.72162  Biso   1.000  O 
  H23      1.0000 0.71490  0.00000  0.61140  Biso   1.000  H 
  O46      1.0000 0.57190  0.00000  0.63260  Biso   1.000  O 
  O47      1.0000 0.63260  0.00000  0.57190  Biso   1.000  O 
  H24      1.0000 0.58112  0.03431  0.72579  Biso   1.000  H 
  O48      1.0000 0.13260  0.00000  0.92810  Biso   1.000  O 
  C43      1.0000 0.11720  0.00000  0.88280  Biso   1.000  C 
  O49      1.0000 0.07190  0.00000  0.86740  Biso   1.000  O 
  C44      1.0000 0.15650  0.00000  0.84350  Biso   1.000  C 
  C45      1.0000 0.20580  0.00000  0.85530  Biso   1.000  C 
  C46      1.0000 0.14470  0.00000  0.79420  Biso   1.000  C 
  C47      1.0000 0.24200  0.00000  0.82050  Biso   1.000  C 
  H25      1.0000 0.21490  0.00000  0.88860  Biso   1.000  H 
  C48      1.0000 0.17950  0.00000  0.75800  Biso   1.000  C 
  H26      1.0000 0.11140  0.00000  0.78510  Biso   1.000  H 
  C49      1.0000 0.23070  0.00000  0.76930  Biso   1.000  C 
  C50      1.0000 0.26930  0.00000  0.73070  Biso   1.000  C 
  H27      1.0000 0.27510  0.00000  0.83050  Biso   1.000  H 
  C51      1.0000 0.32050  0.00000  0.74200  Biso   1.000  C 
  H28      1.0000 0.16950  0.00000  0.72490  Biso   1.000  H 
  C52      1.0000 0.25800  0.00000  0.67950  Biso   1.000  C 
  C53      1.0000 0.35530  0.00000  0.70580  Biso   1.000  C 
  H29      1.0000 0.33050  0.00000  0.77510  Biso   1.000  H 
  C54      1.0000 0.29420  0.00000  0.64470  Biso   1.000  C 
  H30      1.0000 0.22490  0.00000  0.66950  Biso   1.000  H 
  C55      1.0000 0.34350  0.00000  0.65650  Biso   1.000  C 
  C56      1.0000 0.38280  0.00000  0.61720  Biso   1.000  C 
  O50      1.0000 0.40750  0.99919  0.72147  Biso   1.000  O 
  H31      1.0000 0.28510  0.00000  0.61140  Biso   1.000  H 
  O51      1.0000 0.42810  0.00000  0.63260  Biso   1.000  O 
  O52      1.0000 0.36740  0.00000  0.57190  Biso   1.000  O 
  H32      1.0000 0.41985  0.03416  0.72395  Biso   1.000  H 
  O53      1.0000 0.07190  0.13260  0.00000  Biso   1.000  O 
  C57      1.0000 0.11720  0.11720  0.00000  Biso   1.000  C 
  O54      1.0000 0.13260  0.07190  0.00000  Biso   1.000  O 
  C58      1.0000 0.15650  0.15650  0.00000  Biso   1.000  C 
  C59      1.0000 0.14470  0.20580  0.00000  Biso   1.000  C 
  C60      1.0000 0.20580  0.14470  0.00000  Biso   1.000  C 
  C61      1.0000 0.17950  0.24200  0.00000  Biso   1.000  C 
  H33      1.0000 0.11140  0.21490  0.00000  Biso   1.000  H 
  C62      1.0000 0.24200  0.17950  0.00000  Biso   1.000  C 
  H34      1.0000 0.21490  0.11140  0.00000  Biso   1.000  H 
  C63      1.0000 0.23070  0.23070  0.00000  Biso   1.000  C 
  C64      1.0000 0.26930  0.26930  0.00000  Biso   1.000  C 
  H35      1.0000 0.16950  0.27510  0.00000  Biso   1.000  H 
  C65      1.0000 0.25800  0.32050  0.00000  Biso   1.000  C 
  H36      1.0000 0.27510  0.16950  0.00000  Biso   1.000  H 
  C66      1.0000 0.32050  0.25800  0.00000  Biso   1.000  C 
  C67      1.0000 0.29420  0.35530  0.00000  Biso   1.000  C 
  H37      1.0000 0.22490  0.33050  0.00000  Biso   1.000  H 
  C68      1.0000 0.35530  0.29420  0.00000  Biso   1.000  C 
  H38      1.0000 0.33050  0.22490  0.00000  Biso   1.000  H 
  C69      1.0000 0.34350  0.34350  0.00000  Biso   1.000  C 
  C70      1.0000 0.38280  0.38280  0.00000  Biso   1.000  C 
  O55      1.0000 0.27857  0.40778  0.99947  Biso   1.000  O 
  H39      1.0000 0.38860  0.28510  0.00000  Biso   1.000  H 
  O56      1.0000 0.36740  0.42810  0.00000  Biso   1.000  O 
  O57      1.0000 0.42810  0.36740  0.00000  Biso   1.000  O 
  H40      1.0000 0.28690  0.42183  0.03260  Biso   1.000  H 
  O58      1.0000 0.07190  0.86740  0.00000  Biso   1.000  O 
  C71      1.0000 0.11720  0.88280  0.00000  Biso   1.000  C 
  O59      1.0000 0.13260  0.92810  0.00000  Biso   1.000  O 
  C72      1.0000 0.15650  0.84350  0.00000  Biso   1.000  C 
  C73      1.0000 0.14470  0.79420  0.00000  Biso   1.000  C 
  C74      1.0000 0.20580  0.85530  0.00000  Biso   1.000  C 
  C75      1.0000 0.17950  0.75800  0.00000  Biso   1.000  C 
  H41      1.0000 0.11140  0.78510  0.00000  Biso   1.000  H 
  C76      1.0000 0.24200  0.82050  0.00000  Biso   1.000  C 
  H42      1.0000 0.21490  0.88860  0.00000  Biso   1.000  H 
  C77      1.0000 0.23070  0.76930  0.00000  Biso   1.000  C 
  C78      1.0000 0.26930  0.73070  0.00000  Biso   1.000  C 
  H43      1.0000 0.16950  0.72490  0.00000  Biso   1.000  H 
  C79      1.0000 0.25800  0.67950  0.00000  Biso   1.000  C 
  H44      1.0000 0.27510  0.83050  0.00000  Biso   1.000  H 
  C80      1.0000 0.32050  0.74200  0.00000  Biso   1.000  C 
  C81      1.0000 0.29420  0.64470  0.00000  Biso   1.000  C 
  H45      1.0000 0.22490  0.66950  0.00000  Biso   1.000  H 
  C82      1.0000 0.35530  0.70580  0.00000  Biso   1.000  C 
  H46      1.0000 0.33050  0.77510  0.00000  Biso   1.000  H 
  C83      1.0000 0.34350  0.65650  0.00000  Biso   1.000  C 
  C84      1.0000 0.38280  0.61720  0.00000  Biso   1.000  C 
  O60      1.0000 0.27879  0.59238  0.99940  Biso   1.000  O 
  H47      1.0000 0.38860  0.71490  0.00000  Biso   1.000  H 
  O61      1.0000 0.36740  0.57190  0.00000  Biso   1.000  O 
  O62      1.0000 0.42810  0.63260  0.00000  Biso   1.000  O 
  H48      1.0000 0.28498  0.57743  0.03271  Biso   1.000  H 
  O63      1.0000 0.92810  0.86740  0.00000  Biso   1.000  O 
  C85      1.0000 0.88280  0.88280  0.00000  Biso   1.000  C 
  O64      1.0000 0.86740  0.92810  0.00000  Biso   1.000  O 
  C86      1.0000 0.84350  0.84350  0.00000  Biso   1.000  C 
  C87      1.0000 0.85530  0.79420  0.00000  Biso   1.000  C 
  C88      1.0000 0.79420  0.85530  0.00000  Biso   1.000  C 
  C89      1.0000 0.82050  0.75800  0.00000  Biso   1.000  C 
  H49      1.0000 0.88860  0.78510  0.00000  Biso   1.000  H 
  C90      1.0000 0.75800  0.82050  0.00000  Biso   1.000  C 
  H50      1.0000 0.78510  0.88860  0.00000  Biso   1.000  H 
  C91      1.0000 0.76930  0.76930  0.00000  Biso   1.000  C 
  C92      1.0000 0.73070  0.73070  0.00000  Biso   1.000  C 
  H51      1.0000 0.83050  0.72490  0.00000  Biso   1.000  H 
  C93      1.0000 0.74200  0.67950  0.00000  Biso   1.000  C 
  H52      1.0000 0.72490  0.83050  0.00000  Biso   1.000  H 
  C94      1.0000 0.67950  0.74200  0.00000  Biso   1.000  C 
  C95      1.0000 0.70580  0.64470  0.00000  Biso   1.000  C 
  H53      1.0000 0.77510  0.66950  0.00000  Biso   1.000  H 
  C96      1.0000 0.64470  0.70580  0.00000  Biso   1.000  C 
  H54      1.0000 0.66950  0.77510  0.00000  Biso   1.000  H 
  C97      1.0000 0.65650  0.65650  0.00000  Biso   1.000  C 
  C98      1.0000 0.61720  0.61720  0.00000  Biso   1.000  C 
  O65      1.0000 0.72118  0.59240  0.99938  Biso   1.000  O 
  H55      1.0000 0.61140  0.71490  0.00000  Biso   1.000  H 
  O66      1.0000 0.63260  0.57190  0.00000  Biso   1.000  O 
  O67      1.0000 0.57190  0.63260  0.00000  Biso   1.000  O 
  H56      1.0000 0.71583  0.57749  0.03287  Biso   1.000  H 
  O68      1.0000 0.92810  0.13260  0.00000  Biso   1.000  O 
  C99      1.0000 0.88280  0.11720  0.00000  Biso   1.000  C 
  O69      1.0000 0.86740  0.07190  0.00000  Biso   1.000  O 
  C100     1.0000 0.84350  0.15650  0.00000  Biso   1.000  C 
  C101     1.0000 0.85530  0.20580  0.00000  Biso   1.000  C 
  C102     1.0000 0.79420  0.14470  0.00000  Biso   1.000  C 
  C103     1.0000 0.82050  0.24200  0.00000  Biso   1.000  C 
  H57      1.0000 0.88860  0.21490  0.00000  Biso   1.000  H 
  C104     1.0000 0.75800  0.17950  0.00000  Biso   1.000  C 
  H58      1.0000 0.78510  0.11140  0.00000  Biso   1.000  H 
  C105     1.0000 0.76930  0.23070  0.00000  Biso   1.000  C 
  C106     1.0000 0.73070  0.26930  0.00000  Biso   1.000  C 
  H59      1.0000 0.83050  0.27510  0.00000  Biso   1.000  H 
  C107     1.0000 0.74200  0.32050  0.00000  Biso   1.000  C 
  H60      1.0000 0.72490  0.16950  0.00000  Biso   1.000  H 
  C108     1.0000 0.67950  0.25800  0.00000  Biso   1.000  C 
  C109     1.0000 0.70580  0.35530  0.00000  Biso   1.000  C 
  H61      1.0000 0.77510  0.33050  0.00000  Biso   1.000  H 
  C110     1.0000 0.64470  0.29420  0.00000  Biso   1.000  C 
  H62      1.0000 0.66950  0.22490  0.00000  Biso   1.000  H 
  C111     1.0000 0.65650  0.34350  0.00000  Biso   1.000  C 
  C112     1.0000 0.61720  0.38280  0.00000  Biso   1.000  C 
  O70      1.0000 0.72124  0.40764  0.99941  Biso   1.000  O 
  H63      1.0000 0.61140  0.28510  0.00000  Biso   1.000  H 
  O71      1.0000 0.63260  0.42810  0.00000  Biso   1.000  O 
  O72      1.0000 0.57190  0.36740  0.00000  Biso   1.000  O 
  H64      1.0000 0.71447  0.42255  0.03261  Biso   1.000  H 
  O73      1.0000 0.00000  0.07190  0.13260  Biso   1.000  O 
  C113     1.0000 0.00000  0.11720  0.11720  Biso   1.000  C 
  O74      1.0000 0.00000  0.13260  0.07190  Biso   1.000  O 
  C114     1.0000 0.00000  0.15650  0.15650  Biso   1.000  C 
  C115     1.0000 0.00000  0.14470  0.20580  Biso   1.000  C 
  C116     1.0000 0.00000  0.20580  0.14470  Biso   1.000  C 
  C117     1.0000 0.00000  0.17950  0.24200  Biso   1.000  C 
  H65      1.0000 0.00000  0.11140  0.21490  Biso   1.000  H 
  C118     1.0000 0.00000  0.24200  0.17950  Biso   1.000  C 
  H66      1.0000 0.00000  0.21490  0.11140  Biso   1.000  H 
  C119     1.0000 0.00000  0.23070  0.23070  Biso   1.000  C 
  C120     1.0000 0.00000  0.26930  0.26930  Biso   1.000  C 
  H67      1.0000 0.00000  0.16950  0.27510  Biso   1.000  H 
  C121     1.0000 0.00000  0.25800  0.32050  Biso   1.000  C 
  H68      1.0000 0.00000  0.27510  0.16950  Biso   1.000  H 
  C122     1.0000 0.00000  0.32050  0.25800  Biso   1.000  C 
  C123     1.0000 0.00000  0.29420  0.35530  Biso   1.000  C 
  H69      1.0000 0.00000  0.22490  0.33050  Biso   1.000  H 
  C124     1.0000 0.00000  0.35530  0.29420  Biso   1.000  C 
  H70      1.0000 0.00000  0.33050  0.22490  Biso   1.000  H 
  C125     1.0000 0.00000  0.34350  0.34350  Biso   1.000  C 
  C126     1.0000 0.00000  0.38280  0.38280  Biso   1.000  C 
  O75      1.0000 0.99946  0.27862  0.40773  Biso   1.000  O 
  H71      1.0000 0.00000  0.38860  0.28510  Biso   1.000  H 
  O76      1.0000 0.00000  0.36740  0.42810  Biso   1.000  O 
  O77      1.0000 0.00000  0.42810  0.36740  Biso   1.000  O 
  H72      1.0000 0.03249  0.28676  0.42215  Biso   1.000  H 
  O78      1.0000 0.00000  0.07190  0.86740  Biso   1.000  O 
  C127     1.0000 0.00000  0.11720  0.88280  Biso   1.000  C 
  O79      1.0000 0.00000  0.13260  0.92810  Biso   1.000  O 
  C128     1.0000 0.00000  0.15650  0.84350  Biso   1.000  C 
  C129     1.0000 0.00000  0.14470  0.79420  Biso   1.000  C 
  C130     1.0000 0.00000  0.20580  0.85530  Biso   1.000  C 
  C131     1.0000 0.00000  0.17950  0.75800  Biso   1.000  C 
  H73      1.0000 0.00000  0.11140  0.78510  Biso   1.000  H 
  C132     1.0000 0.00000  0.24200  0.82050  Biso   1.000  C 
  H74      1.0000 0.00000  0.21490  0.88860  Biso   1.000  H 
  C133     1.0000 0.00000  0.23070  0.76930  Biso   1.000  C 
  C134     1.0000 0.00000  0.26930  0.73070  Biso   1.000  C 
  H75      1.0000 0.00000  0.16950  0.72490  Biso   1.000  H 
  C135     1.0000 0.00000  0.25800  0.67950  Biso   1.000  C 
  H76      1.0000 0.00000  0.27510  0.83050  Biso   1.000  H 
  C136     1.0000 0.00000  0.32050  0.74200  Biso   1.000  C 
  C137     1.0000 0.00000  0.29420  0.64470  Biso   1.000  C 
  H77      1.0000 0.00000  0.22490  0.66950  Biso   1.000  H 
  C138     1.0000 0.00000  0.35530  0.70580  Biso   1.000  C 
  H78      1.0000 0.00000  0.33050  0.77510  Biso   1.000  H 
  C139     1.0000 0.00000  0.34350  0.65650  Biso   1.000  C 
  C140     1.0000 0.00000  0.38280  0.61720  Biso   1.000  C 
  O80      1.0000 0.99936  0.27883  0.59241  Biso   1.000  O 
  H79      1.0000 0.00000  0.38860  0.71490  Biso   1.000  H 
  O81      1.0000 0.00000  0.36740  0.57190  Biso   1.000  O 
  O82      1.0000 0.00000  0.42810  0.63260  Biso   1.000  O 
  H80      1.0000 0.03298  0.28363  0.57757  Biso   1.000  H 
  O83      1.0000 0.00000  0.92810  0.86740  Biso   1.000  O 
  C141     1.0000 0.00000  0.88280  0.88280  Biso   1.000  C 
  O84      1.0000 0.00000  0.86740  0.92810  Biso   1.000  O 
  C142     1.0000 0.00000  0.84350  0.84350  Biso   1.000  C 
  C143     1.0000 0.00000  0.85530  0.79420  Biso   1.000  C 
  C144     1.0000 0.00000  0.79420  0.85530  Biso   1.000  C 
  C145     1.0000 0.00000  0.82050  0.75800  Biso   1.000  C 
  H81      1.0000 0.00000  0.88860  0.78510  Biso   1.000  H 
  C146     1.0000 0.00000  0.75800  0.82050  Biso   1.000  C 
  H82      1.0000 0.00000  0.78510  0.88860  Biso   1.000  H 
  C147     1.0000 0.00000  0.76930  0.76930  Biso   1.000  C 
  C148     1.0000 0.00000  0.73070  0.73070  Biso   1.000  C 
  H83      1.0000 0.00000  0.83050  0.72490  Biso   1.000  H 
  C149     1.0000 0.00000  0.74200  0.67950  Biso   1.000  C 
  H84      1.0000 0.00000  0.72490  0.83050  Biso   1.000  H 
  C150     1.0000 0.00000  0.67950  0.74200  Biso   1.000  C 
  C151     1.0000 0.00000  0.70580  0.64470  Biso   1.000  C 
  H85      1.0000 0.00000  0.77510  0.66950  Biso   1.000  H 
  C152     1.0000 0.00000  0.64470  0.70580  Biso   1.000  C 
  H86      1.0000 0.00000  0.66950  0.77510  Biso   1.000  H 
  C153     1.0000 0.00000  0.65650  0.65650  Biso   1.000  C 
  C154     1.0000 0.00000  0.61720  0.61720  Biso   1.000  C 
  O85      1.0000 0.99936  0.72117  0.59241  Biso   1.000  O 
  H87      1.0000 0.00000  0.61140  0.71490  Biso   1.000  H 
  O86      1.0000 0.00000  0.63260  0.57190  Biso   1.000  O 
  O87      1.0000 0.00000  0.57190  0.63260  Biso   1.000  O 
  H88      1.0000 0.03297  0.71631  0.57756  Biso   1.000  H 
  O88      1.0000 0.00000  0.92810  0.13260  Biso   1.000  O 
  C155     1.0000 0.00000  0.88280  0.11720  Biso   1.000  C 
  O89      1.0000 0.00000  0.86740  0.07190  Biso   1.000  O 
  C156     1.0000 0.00000  0.84350  0.15650  Biso   1.000  C 
  C157     1.0000 0.00000  0.85530  0.20580  Biso   1.000  C 
  C158     1.0000 0.00000  0.79420  0.14470  Biso   1.000  C 
  C159     1.0000 0.00000  0.82050  0.24200  Biso   1.000  C 
  H89      1.0000 0.00000  0.88860  0.21490  Biso   1.000  H 
  C160     1.0000 0.00000  0.75800  0.17950  Biso   1.000  C 
  H90      1.0000 0.00000  0.78510  0.11140  Biso   1.000  H 
  C161     1.0000 0.00000  0.76930  0.23070  Biso   1.000  C 
  C162     1.0000 0.00000  0.73070  0.26930  Biso   1.000  C 
  H91      1.0000 0.00000  0.83050  0.27510  Biso   1.000  H 
  C163     1.0000 0.00000  0.74200  0.32050  Biso   1.000  C 
  H92      1.0000 0.00000  0.72490  0.16950  Biso   1.000  H 
  C164     1.0000 0.00000  0.67950  0.25800  Biso   1.000  C 
  C165     1.0000 0.00000  0.70580  0.35530  Biso   1.000  C 
  H93      1.0000 0.00000  0.77510  0.33050  Biso   1.000  H 
  C166     1.0000 0.00000  0.64470  0.29420  Biso   1.000  C 
  H94      1.0000 0.00000  0.66950  0.22490  Biso   1.000  H 
  C167     1.0000 0.00000  0.65650  0.34350  Biso   1.000  C 
  C168     1.0000 0.00000  0.61720  0.38280  Biso   1.000  C 
  O90      1.0000 0.99941  0.72124  0.40763  Biso   1.000  O 
  H95      1.0000 0.00000  0.61140  0.28510  Biso   1.000  H 
  O91      1.0000 0.00000  0.63260  0.42810  Biso   1.000  O 
  O92      1.0000 0.00000  0.57190  0.36740  Biso   1.000  O 
  H96      1.0000 0.03262  0.71455  0.42256  Biso   1.000  H 
  O93      1.0000 0.13260  0.50000  0.57190  Biso   1.000  O 
  C169     1.0000 0.11720  0.50000  0.61720  Biso   1.000  C 
  O94      1.0000 0.07190  0.50000  0.63260  Biso   1.000  O 
  C170     1.0000 0.15650  0.50000  0.65650  Biso   1.000  C 
  C171     1.0000 0.20580  0.50000  0.64470  Biso   1.000  C 
  C172     1.0000 0.14470  0.50000  0.70580  Biso   1.000  C 
  C173     1.0000 0.24200  0.50000  0.67950  Biso   1.000  C 
  H97      1.0000 0.21490  0.50000  0.61140  Biso   1.000  H 
  C174     1.0000 0.17950  0.50000  0.74200  Biso   1.000  C 
  H98      1.0000 0.11140  0.50000  0.71490  Biso   1.000  H 
  C175     1.0000 0.23070  0.50000  0.73070  Biso   1.000  C 
  C176     1.0000 0.26930  0.50000  0.76930  Biso   1.000  C 
  H99      1.0000 0.27510  0.50000  0.66950  Biso   1.000  H 
  C177     1.0000 0.32050  0.50000  0.75800  Biso   1.000  C 
  H100     1.0000 0.16950  0.50000  0.77510  Biso   1.000  H 
  C178     1.0000 0.25800  0.50000  0.82050  Biso   1.000  C 
  C179     1.0000 0.35530  0.50000  0.79420  Biso   1.000  C 
  H101     1.0000 0.33050  0.50000  0.72490  Biso   1.000  H 
  C180     1.0000 0.29420  0.50000  0.85530  Biso   1.000  C 
  H102     1.0000 0.22490  0.50000  0.83050  Biso   1.000  H 
  C181     1.0000 0.34350  0.50000  0.84350  Biso   1.000  C 
  C182     1.0000 0.38280  0.50000  0.88280  Biso   1.000  C 
  O95      1.0000 0.40804  0.50124  0.78052  Biso   1.000  O 
  H103     1.0000 0.28510  0.50000  0.88860  Biso   1.000  H 
  O96      1.0000 0.42810  0.50000  0.86740  Biso   1.000  O 
  O97      1.0000 0.36740  0.50000  0.92810  Biso   1.000  O 
  H104     1.0000 0.41503  0.53647  0.77122  Biso   1.000  H 
  O98      1.0000 0.86740  0.50000  0.57190  Biso   1.000  O 
  C183     1.0000 0.88280  0.50000  0.61720  Biso   1.000  C 
  O99      1.0000 0.92810  0.50000  0.63260  Biso   1.000  O 
  C184     1.0000 0.84350  0.50000  0.65650  Biso   1.000  C 
  C185     1.0000 0.79420  0.50000  0.64470  Biso   1.000  C 
  C186     1.0000 0.85530  0.50000  0.70580  Biso   1.000  C 
  C187     1.0000 0.75800  0.50000  0.67950  Biso   1.000  C 
  H105     1.0000 0.78510  0.50000  0.61140  Biso   1.000  H 
  C188     1.0000 0.82050  0.50000  0.74200  Biso   1.000  C 
  H106     1.0000 0.88860  0.50000  0.71490  Biso   1.000  H 
  C189     1.0000 0.76930  0.50000  0.73070  Biso   1.000  C 
  C190     1.0000 0.73070  0.50000  0.76930  Biso   1.000  C 
  H107     1.0000 0.72490  0.50000  0.66950  Biso   1.000  H 
  C191     1.0000 0.67950  0.50000  0.75800  Biso   1.000  C 
  H108     1.0000 0.83050  0.50000  0.77510  Biso   1.000  H 
  C192     1.0000 0.74200  0.50000  0.82050  Biso   1.000  C 
  C193     1.0000 0.64470  0.50000  0.79420  Biso   1.000  C 
  H109     1.0000 0.66950  0.50000  0.72490  Biso   1.000  H 
  C194     1.0000 0.70580  0.50000  0.85530  Biso   1.000  C 
  H110     1.0000 0.77510  0.50000  0.83050  Biso   1.000  H 
  C195     1.0000 0.65650  0.50000  0.84350  Biso   1.000  C 
  C196     1.0000 0.61720  0.50000  0.88280  Biso   1.000  C 
  O100     1.0000 0.59294  0.50154  0.77760  Biso   1.000  O 
  H111     1.0000 0.71490  0.50000  0.88860  Biso   1.000  H 
  O101     1.0000 0.57190  0.50000  0.86740  Biso   1.000  O 
  O102     1.0000 0.63260  0.50000  0.92810  Biso   1.000  O 
  H112     1.0000 0.59033  0.53235  0.75726  Biso   1.000  H 
  O103     1.0000 0.86740  0.50000  0.42810  Biso   1.000  O 
  C197     1.0000 0.88280  0.50000  0.38280  Biso   1.000  C 
  O104     1.0000 0.92810  0.50000  0.36740  Biso   1.000  O 
  C198     1.0000 0.84350  0.50000  0.34350  Biso   1.000  C 
  C199     1.0000 0.79420  0.50000  0.35530  Biso   1.000  C 
  C200     1.0000 0.85530  0.50000  0.29420  Biso   1.000  C 
  C201     1.0000 0.75800  0.50000  0.32050  Biso   1.000  C 
  H113     1.0000 0.78510  0.50000  0.38860  Biso   1.000  H 
  C202     1.0000 0.82050  0.50000  0.25800  Biso   1.000  C 
  H114     1.0000 0.88860  0.50000  0.28510  Biso   1.000  H 
  C203     1.0000 0.76930  0.50000  0.26930  Biso   1.000  C 
  C204     1.0000 0.73070  0.50000  0.23070  Biso   1.000  C 
  H115     1.0000 0.72490  0.50000  0.33050  Biso   1.000  H 
  C205     1.0000 0.67950  0.50000  0.24200  Biso   1.000  C 
  H116     1.0000 0.83050  0.50000  0.22490  Biso   1.000  H 
  C206     1.0000 0.74200  0.50000  0.17950  Biso   1.000  C 
  C207     1.0000 0.64470  0.50000  0.20580  Biso   1.000  C 
  H117     1.0000 0.66950  0.50000  0.27510  Biso   1.000  H 
  C208     1.0000 0.70580  0.50000  0.14470  Biso   1.000  C 
  H118     1.0000 0.77510  0.50000  0.16950  Biso   1.000  H 
  C209     1.0000 0.65650  0.50000  0.15650  Biso   1.000  C 
  C210     1.0000 0.61720  0.50000  0.11720  Biso   1.000  C 
  O105     1.0000 0.59269  0.49832  0.22128  Biso   1.000  O 
  H119     1.0000 0.71490  0.50000  0.11140  Biso   1.000  H 
  O106     1.0000 0.57190  0.50000  0.13260  Biso   1.000  O 
  O107     1.0000 0.63260  0.50000  0.07190  Biso   1.000  O 
  H120     1.0000 0.58821  0.46781  0.24158  Biso   1.000  H 
  O108     1.0000 0.13260  0.50000  0.42810  Biso   1.000  O 
  C211     1.0000 0.11720  0.50000  0.38280  Biso   1.000  C 
  O109     1.0000 0.07190  0.50000  0.36740  Biso   1.000  O 
  C212     1.0000 0.15650  0.50000  0.34350  Biso   1.000  C 
  C213     1.0000 0.20580  0.50000  0.35530  Biso   1.000  C 
  C214     1.0000 0.14470  0.50000  0.29420  Biso   1.000  C 
  C215     1.0000 0.24200  0.50000  0.32050  Biso   1.000  C 
  H121     1.0000 0.21490  0.50000  0.38860  Biso   1.000  H 
  C216     1.0000 0.17950  0.50000  0.25800  Biso   1.000  C 
  H122     1.0000 0.11140  0.50000  0.28510  Biso   1.000  H 
  C217     1.0000 0.23070  0.50000  0.26930  Biso   1.000  C 
  C218     1.0000 0.26930  0.50000  0.23070  Biso   1.000  C 
  H123     1.0000 0.27510  0.50000  0.33050  Biso   1.000  H 
  C219     1.0000 0.32050  0.50000  0.24200  Biso   1.000  C 
  H124     1.0000 0.16950  0.50000  0.22490  Biso   1.000  H 
  C220     1.0000 0.25800  0.50000  0.17950  Biso   1.000  C 
  C221     1.0000 0.35530  0.50000  0.20580  Biso   1.000  C 
  H125     1.0000 0.33050  0.50000  0.27510  Biso   1.000  H 
  C222     1.0000 0.29420  0.50000  0.14470  Biso   1.000  C 
  H126     1.0000 0.22490  0.50000  0.16950  Biso   1.000  H 
  C223     1.0000 0.34350  0.50000  0.15650  Biso   1.000  C 
  C224     1.0000 0.38280  0.50000  0.11720  Biso   1.000  C 
  O110     1.0000 0.40824  0.49892  0.21964  Biso   1.000  O 
  H127     1.0000 0.28510  0.50000  0.11140  Biso   1.000  H 
  O111     1.0000 0.42810  0.50000  0.13260  Biso   1.000  O 
  O112     1.0000 0.36740  0.50000  0.07190  Biso   1.000  O 
  H128     1.0000 0.41529  0.46294  0.22137  Biso   1.000  H 
  O113     1.0000 0.07190  0.63260  0.50000  Biso   1.000  O 
  C225     1.0000 0.11720  0.61720  0.50000  Biso   1.000  C 
  O114     1.0000 0.13260  0.57190  0.50000  Biso   1.000  O 
  C226     1.0000 0.15650  0.65650  0.50000  Biso   1.000  C 
  C227     1.0000 0.14470  0.70580  0.50000  Biso   1.000  C 
  C228     1.0000 0.20580  0.64470  0.50000  Biso   1.000  C 
  C229     1.0000 0.17950  0.74200  0.50000  Biso   1.000  C 
  H129     1.0000 0.11140  0.71490  0.50000  Biso   1.000  H 
  C230     1.0000 0.24200  0.67950  0.50000  Biso   1.000  C 
  H130     1.0000 0.21490  0.61140  0.50000  Biso   1.000  H 
  C231     1.0000 0.23070  0.73070  0.50000  Biso   1.000  C 
  C232     1.0000 0.26930  0.76930  0.50000  Biso   1.000  C 
  H131     1.0000 0.16950  0.77510  0.50000  Biso   1.000  H 
  C233     1.0000 0.25800  0.82050  0.50000  Biso   1.000  C 
  H132     1.0000 0.27510  0.66950  0.50000  Biso   1.000  H 
  C234     1.0000 0.32050  0.75800  0.50000  Biso   1.000  C 
  C235     1.0000 0.29420  0.85530  0.50000  Biso   1.000  C 
  H133     1.0000 0.22490  0.83050  0.50000  Biso   1.000  H 
  C236     1.0000 0.35530  0.79420  0.50000  Biso   1.000  C 
  H134     1.0000 0.33050  0.72490  0.50000  Biso   1.000  H 
  C237     1.0000 0.34350  0.84350  0.50000  Biso   1.000  C 
  C238     1.0000 0.38280  0.88280  0.50000  Biso   1.000  C 
  O115     1.0000 0.28022  0.90777  0.49862  Biso   1.000  O 
  H135     1.0000 0.38860  0.78510  0.50000  Biso   1.000  H 
  O116     1.0000 0.36740  0.92810  0.50000  Biso   1.000  O 
  O117     1.0000 0.42810  0.86740  0.50000  Biso   1.000  O 
  H136     1.0000 0.26860  0.91523  0.46440  Biso   1.000  H 
  O118     1.0000 0.07190  0.36740  0.50000  Biso   1.000  O 
  C239     1.0000 0.11720  0.38280  0.50000  Biso   1.000  C 
  O119     1.0000 0.13260  0.42810  0.50000  Biso   1.000  O 
  C240     1.0000 0.15650  0.34350  0.50000  Biso   1.000  C 
  C241     1.0000 0.14470  0.29420  0.50000  Biso   1.000  C 
  C242     1.0000 0.20580  0.35530  0.50000  Biso   1.000  C 
  C243     1.0000 0.17950  0.25800  0.50000  Biso   1.000  C 
  H137     1.0000 0.11140  0.28510  0.50000  Biso   1.000  H 
  C244     1.0000 0.24200  0.32050  0.50000  Biso   1.000  C 
  H138     1.0000 0.21490  0.38860  0.50000  Biso   1.000  H 
  C245     1.0000 0.23070  0.26930  0.50000  Biso   1.000  C 
  C246     1.0000 0.26930  0.23070  0.50000  Biso   1.000  C 
  H139     1.0000 0.16950  0.22490  0.50000  Biso   1.000  H 
  C247     1.0000 0.25800  0.17950  0.50000  Biso   1.000  C 
  H140     1.0000 0.27510  0.33050  0.50000  Biso   1.000  H 
  C248     1.0000 0.32050  0.24200  0.50000  Biso   1.000  C 
  C249     1.0000 0.29420  0.14470  0.50000  Biso   1.000  C 
  H141     1.0000 0.22490  0.16950  0.50000  Biso   1.000  H 
  C250     1.0000 0.35530  0.20580  0.50000  Biso   1.000  C 
  H142     1.0000 0.33050  0.27510  0.50000  Biso   1.000  H 
  C251     1.0000 0.34350  0.15650  0.50000  Biso   1.000  C 
  C252     1.0000 0.38280  0.11720  0.50000  Biso   1.000  C 
  O120     1.0000 0.27719  0.09323  0.49858  Biso   1.000  O 
  H143     1.0000 0.38860  0.21490  0.50000  Biso   1.000  H 
  O121     1.0000 0.36740  0.07190  0.50000  Biso   1.000  O 
  O122     1.0000 0.42810  0.13260  0.50000  Biso   1.000  O 
  H144     1.0000 0.28371  0.08005  0.46485  Biso   1.000  H 
  O123     1.0000 0.92810  0.36740  0.50000  Biso   1.000  O 
  C253     1.0000 0.88280  0.38280  0.50000  Biso   1.000  C 
  O124     1.0000 0.86740  0.42810  0.50000  Biso   1.000  O 
  C254     1.0000 0.84350  0.34350  0.50000  Biso   1.000  C 
  C255     1.0000 0.85530  0.29420  0.50000  Biso   1.000  C 
  C256     1.0000 0.79420  0.35530  0.50000  Biso   1.000  C 
  C257     1.0000 0.82050  0.25800  0.50000  Biso   1.000  C 
  H145     1.0000 0.88860  0.28510  0.50000  Biso   1.000  H 
  C258     1.0000 0.75800  0.32050  0.50000  Biso   1.000  C 
  H146     1.0000 0.78510  0.38860  0.50000  Biso   1.000  H 
  C259     1.0000 0.76930  0.26930  0.50000  Biso   1.000  C 
  C260     1.0000 0.73070  0.23070  0.50000  Biso   1.000  C 
  H147     1.0000 0.83050  0.22490  0.50000  Biso   1.000  H 
  C261     1.0000 0.74200  0.17950  0.50000  Biso   1.000  C 
  H148     1.0000 0.72490  0.33050  0.50000  Biso   1.000  H 
  C262     1.0000 0.67950  0.24200  0.50000  Biso   1.000  C 
  C263     1.0000 0.70580  0.14470  0.50000  Biso   1.000  C 
  H149     1.0000 0.77510  0.16950  0.50000  Biso   1.000  H 
  C264     1.0000 0.64470  0.20580  0.50000  Biso   1.000  C 
  H150     1.0000 0.66950  0.27510  0.50000  Biso   1.000  H 
  C265     1.0000 0.65650  0.15650  0.50000  Biso   1.000  C 
  C266     1.0000 0.61720  0.11720  0.50000  Biso   1.000  C 
  O125     1.0000 0.71960  0.09177  0.50109  Biso   1.000  O 
  H151     1.0000 0.61140  0.21490  0.50000  Biso   1.000  H 
  O126     1.0000 0.63260  0.07190  0.50000  Biso   1.000  O 
  O127     1.0000 0.57190  0.13260  0.50000  Biso   1.000  O 
  H152     1.0000 0.72207  0.08475  0.53703  Biso   1.000  H 
  O128     1.0000 0.92810  0.63260  0.50000  Biso   1.000  O 
  C267     1.0000 0.88280  0.61720  0.50000  Biso   1.000  C 
  O129     1.0000 0.86740  0.57190  0.50000  Biso   1.000  O 
  C268     1.0000 0.84350  0.65650  0.50000  Biso   1.000  C 
  C269     1.0000 0.85530  0.70580  0.50000  Biso   1.000  C 
  C270     1.0000 0.79420  0.64470  0.50000  Biso   1.000  C 
  C271     1.0000 0.82050  0.74200  0.50000  Biso   1.000  C 
  H153     1.0000 0.88860  0.71490  0.50000  Biso   1.000  H 
  C272     1.0000 0.75800  0.67950  0.50000  Biso   1.000  C 
  H154     1.0000 0.78510  0.61140  0.50000  Biso   1.000  H 
  C273     1.0000 0.76930  0.73070  0.50000  Biso   1.000  C 
  C274     1.0000 0.73070  0.76930  0.50000  Biso   1.000  C 
  H155     1.0000 0.83050  0.77510  0.50000  Biso   1.000  H 
  C275     1.0000 0.74200  0.82050  0.50000  Biso   1.000  C 
  H156     1.0000 0.72490  0.66950  0.50000  Biso   1.000  H 
  C276     1.0000 0.67950  0.75800  0.50000  Biso   1.000  C 
  C277     1.0000 0.70580  0.85530  0.50000  Biso   1.000  C 
  H157     1.0000 0.77510  0.83050  0.50000  Biso   1.000  H 
  C278     1.0000 0.64470  0.79420  0.50000  Biso   1.000  C 
  H158     1.0000 0.66950  0.72490  0.50000  Biso   1.000  H 
  C279     1.0000 0.65650  0.84350  0.50000  Biso   1.000  C 
  C280     1.0000 0.61720  0.88280  0.50000  Biso   1.000  C 
  O130     1.0000 0.72239  0.90757  0.50114  Biso   1.000  O 
  H159     1.0000 0.61140  0.78510  0.50000  Biso   1.000  H 
  O131     1.0000 0.63260  0.92810  0.50000  Biso   1.000  O 
  O132     1.0000 0.57190  0.86740  0.50000  Biso   1.000  O 
  H160     1.0000 0.71855  0.91621  0.53685  Biso   1.000  H 
  O133     1.0000 0.50000  0.07190  0.63260  Biso   1.000  O 
  C281     1.0000 0.50000  0.11720  0.61720  Biso   1.000  C 
  O134     1.0000 0.50000  0.13260  0.57190  Biso   1.000  O 
  C282     1.0000 0.50000  0.15650  0.65650  Biso   1.000  C 
  C283     1.0000 0.50000  0.14470  0.70580  Biso   1.000  C 
  C284     1.0000 0.50000  0.20580  0.64470  Biso   1.000  C 
  C285     1.0000 0.50000  0.17950  0.74200  Biso   1.000  C 
  H161     1.0000 0.50000  0.11140  0.71490  Biso   1.000  H 
  C286     1.0000 0.50000  0.24200  0.67950  Biso   1.000  C 
  H162     1.0000 0.50000  0.21490  0.61140  Biso   1.000  H 
  C287     1.0000 0.50000  0.23070  0.73070  Biso   1.000  C 
  C288     1.0000 0.50000  0.26930  0.76930  Biso   1.000  C 
  H163     1.0000 0.50000  0.16950  0.77510  Biso   1.000  H 
  C289     1.0000 0.50000  0.25800  0.82050  Biso   1.000  C 
  H164     1.0000 0.50000  0.27510  0.66950  Biso   1.000  H 
  C290     1.0000 0.50000  0.32050  0.75800  Biso   1.000  C 
  C291     1.0000 0.50000  0.29420  0.85530  Biso   1.000  C 
  H165     1.0000 0.50000  0.22490  0.83050  Biso   1.000  H 
  C292     1.0000 0.50000  0.35530  0.79420  Biso   1.000  C 
  H166     1.0000 0.50000  0.33050  0.72490  Biso   1.000  H 
  C293     1.0000 0.50000  0.34350  0.84350  Biso   1.000  C 
  C294     1.0000 0.50000  0.38280  0.88280  Biso   1.000  C 
  O135     1.0000 0.49864  0.28032  0.90781  Biso   1.000  O 
  H167     1.0000 0.50000  0.38860  0.78510  Biso   1.000  H 
  O136     1.0000 0.50000  0.36740  0.92810  Biso   1.000  O 
  O137     1.0000 0.50000  0.42810  0.86740  Biso   1.000  O 
  H168     1.0000 0.46424  0.26895  0.91531  Biso   1.000  H 
  O138     1.0000 0.50000  0.07190  0.36740  Biso   1.000  O 
  C295     1.0000 0.50000  0.11720  0.38280  Biso   1.000  C 
  O139     1.0000 0.50000  0.13260  0.42810  Biso   1.000  O 
  C296     1.0000 0.50000  0.15650  0.34350  Biso   1.000  C 
  C297     1.0000 0.50000  0.14470  0.29420  Biso   1.000  C 
  C298     1.0000 0.50000  0.20580  0.35530  Biso   1.000  C 
  C299     1.0000 0.50000  0.17950  0.25800  Biso   1.000  C 
  H169     1.0000 0.50000  0.11140  0.28510  Biso   1.000  H 
  C300     1.0000 0.50000  0.24200  0.32050  Biso   1.000  C 
  H170     1.0000 0.50000  0.21490  0.38860  Biso   1.000  H 
  C301     1.0000 0.50000  0.23070  0.26930  Biso   1.000  C 
  C302     1.0000 0.50000  0.26930  0.23070  Biso   1.000  C 
  H171     1.0000 0.50000  0.16950  0.22490  Biso   1.000  H 
  C303     1.0000 0.50000  0.25800  0.17950  Biso   1.000  C 
  H172     1.0000 0.50000  0.27510  0.33050  Biso   1.000  H 
  C304     1.0000 0.50000  0.32050  0.24200  Biso   1.000  C 
  C305     1.0000 0.50000  0.29420  0.14470  Biso   1.000  C 
  H173     1.0000 0.50000  0.22490  0.16950  Biso   1.000  H 
  C306     1.0000 0.50000  0.35530  0.20580  Biso   1.000  C 
  H174     1.0000 0.50000  0.33050  0.27510  Biso   1.000  H 
  C307     1.0000 0.50000  0.34350  0.15650  Biso   1.000  C 
  C308     1.0000 0.50000  0.38280  0.11720  Biso   1.000  C 
  O140     1.0000 0.49893  0.27723  0.09292  Biso   1.000  O 
  H175     1.0000 0.50000  0.38860  0.21490  Biso   1.000  H 
  O141     1.0000 0.50000  0.36740  0.07190  Biso   1.000  O 
  O142     1.0000 0.50000  0.42810  0.13260  Biso   1.000  O 
  H176     1.0000 0.46580  0.26250  0.09132  Biso   1.000  H 
  O143     1.0000 0.50000  0.92810  0.36740  Biso   1.000  O 
  C309     1.0000 0.50000  0.88280  0.38280  Biso   1.000  C 
  O144     1.0000 0.50000  0.86740  0.42810  Biso   1.000  O 
  C310     1.0000 0.50000  0.84350  0.34350  Biso   1.000  C 
  C311     1.0000 0.50000  0.85530  0.29420  Biso   1.000  C 
  C312     1.0000 0.50000  0.79420  0.35530  Biso   1.000  C 
  C313     1.0000 0.50000  0.82050  0.25800  Biso   1.000  C 
  H177     1.0000 0.50000  0.88860  0.28510  Biso   1.000  H 
  C314     1.0000 0.50000  0.75800  0.32050  Biso   1.000  C 
  H178     1.0000 0.50000  0.78510  0.38860  Biso   1.000  H 
  C315     1.0000 0.50000  0.76930  0.26930  Biso   1.000  C 
  C316     1.0000 0.50000  0.73070  0.23070  Biso   1.000  C 
  H179     1.0000 0.50000  0.83050  0.22490  Biso   1.000  H 
  C317     1.0000 0.50000  0.74200  0.17950  Biso   1.000  C 
  H180     1.0000 0.50000  0.72490  0.33050  Biso   1.000  H 
  C318     1.0000 0.50000  0.67950  0.24200  Biso   1.000  C 
  C319     1.0000 0.50000  0.70580  0.14470  Biso   1.000  C 
  H181     1.0000 0.50000  0.77510  0.16950  Biso   1.000  H 
  C320     1.0000 0.50000  0.64470  0.20580  Biso   1.000  C 
  H182     1.0000 0.50000  0.66950  0.27510  Biso   1.000  H 
  C321     1.0000 0.50000  0.65650  0.15650  Biso   1.000  C 
  C322     1.0000 0.50000  0.61720  0.11720  Biso   1.000  C 
  O145     1.0000 0.49892  0.71962  0.09177  Biso   1.000  O 
  H183     1.0000 0.50000  0.61140  0.21490  Biso   1.000  H 
  O146     1.0000 0.50000  0.63260  0.07190  Biso   1.000  O 
  O147     1.0000 0.50000  0.57190  0.13260  Biso   1.000  O 
  H184     1.0000 0.46296  0.72178  0.08474  Biso   1.000  H 
  O148     1.0000 0.50000  0.92810  0.63260  Biso   1.000  O 
  C323     1.0000 0.50000  0.88280  0.61720  Biso   1.000  C 
  O149     1.0000 0.50000  0.86740  0.57190  Biso   1.000  O 
  C324     1.0000 0.50000  0.84350  0.65650  Biso   1.000  C 
  C325     1.0000 0.50000  0.85530  0.70580  Biso   1.000  C 
  C326     1.0000 0.50000  0.79420  0.64470  Biso   1.000  C 
  C327     1.0000 0.50000  0.82050  0.74200  Biso   1.000  C 
  H185     1.0000 0.50000  0.88860  0.71490  Biso   1.000  H 
  C328     1.0000 0.50000  0.75800  0.67950  Biso   1.000  C 
  H186     1.0000 0.50000  0.78510  0.61140  Biso   1.000  H 
  C329     1.0000 0.50000  0.76930  0.73070  Biso   1.000  C 
  C330     1.0000 0.50000  0.73070  0.76930  Biso   1.000  C 
  H187     1.0000 0.50000  0.83050  0.77510  Biso   1.000  H 
  C331     1.0000 0.50000  0.74200  0.82050  Biso   1.000  C 
  H188     1.0000 0.50000  0.72490  0.66950  Biso   1.000  H 
  C332     1.0000 0.50000  0.67950  0.75800  Biso   1.000  C 
  C333     1.0000 0.50000  0.70580  0.85530  Biso   1.000  C 
  H189     1.0000 0.50000  0.77510  0.83050  Biso   1.000  H 
  C334     1.0000 0.50000  0.64470  0.79420  Biso   1.000  C 
  H190     1.0000 0.50000  0.66950  0.72490  Biso   1.000  H 
  C335     1.0000 0.50000  0.65650  0.84350  Biso   1.000  C 
  C336     1.0000 0.50000  0.61720  0.88280  Biso   1.000  C 
  O150     1.0000 0.50100  0.71991  0.90831  Biso   1.000  O 
  H191     1.0000 0.50000  0.61140  0.78510  Biso   1.000  H 
  O151     1.0000 0.50000  0.63260  0.92810  Biso   1.000  O 
  O152     1.0000 0.50000  0.57190  0.86740  Biso   1.000  O 
  H192     1.0000 0.53694  0.71540  0.91576  Biso   1.000  H 
