data_image0
_cell_length_a       26.896
_cell_length_b       26.896
_cell_length_c       26.896
_cell_angle_alpha    90
_cell_angle_beta     90
_cell_angle_gamma    90

_symmetry_space_group_name_H-M    "P 1"
_symmetry_int_tables_number       1

loop_
  _symmetry_equiv_pos_as_xyz
  'x, y, z'

loop_
  _atom_site_label
  _atom_site_occupancy
  _atom_site_fract_x
  _atom_site_fract_y
  _atom_site_fract_z
  _atom_site_thermal_displace_type
  _atom_site_B_iso_or_equiv
  _atom_site_type_symbol
  Zr1      1.0000 0.09204  0.00000  0.00000  Biso   1.000  Zr
  Zr2      1.0000 0.90796  0.00000  0.00000  Biso   1.000  Zr
  Zr3      1.0000 0.00000  0.09204  0.00000  Biso   1.000  Zr
  Zr4      1.0000 0.00000  0.90796  0.00000  Biso   1.000  Zr
  Zr5      1.0000 0.00000  0.00000  0.09204  Biso   1.000  Zr
  Zr6      1.0000 0.00000  0.00000  0.90796  Biso   1.000  Zr
  Zr7      1.0000 0.09204  0.50000  0.50000  Biso   1.000  Zr
  Zr8      1.0000 0.90796  0.50000  0.50000  Biso   1.000  Zr
  Zr9      1.0000 0.00000  0.59204  0.50000  Biso   1.000  Zr
  Zr10     1.0000 0.00000  0.40796  0.50000  Biso   1.000  Zr
  Zr11     1.0000 0.00000  0.50000  0.59204  Biso   1.000  Zr
  Zr12     1.0000 0.00000  0.50000  0.40796  Biso   1.000  Zr
  Zr13     1.0000 0.59204  0.00000  0.50000  Biso   1.000  Zr
  Zr14     1.0000 0.40796  0.00000  0.50000  Biso   1.000  Zr
  Zr15     1.0000 0.50000  0.09204  0.50000  Biso   1.000  Zr
  Zr16     1.0000 0.50000  0.90796  0.50000  Biso   1.000  Zr
  Zr17     1.0000 0.50000  0.00000  0.59204  Biso   1.000  Zr
  Zr18     1.0000 0.50000  0.00000  0.40796  Biso   1.000  Zr
  Zr19     1.0000 0.59204  0.50000  0.00000  Biso   1.000  Zr
  Zr20     1.0000 0.40796  0.50000  0.00000  Biso   1.000  Zr
  Zr21     1.0000 0.50000  0.59204  0.00000  Biso   1.000  Zr
  Zr22     1.0000 0.50000  0.40796  0.00000  Biso   1.000  Zr
  Zr23     1.0000 0.50000  0.50000  0.09204  Biso   1.000  Zr
  Zr24     1.0000 0.50000  0.50000  0.90796  Biso   1.000  Zr
  O1       1.0000 0.04540  0.04540  0.04540  Biso   1.000  O 
  O2       1.0000 0.95460  0.95460  0.04540  Biso   1.000  O 
  O3       1.0000 0.95460  0.04540  0.95460  Biso   1.000  O 
  O4       1.0000 0.04540  0.95460  0.95460  Biso   1.000  O 
  O5       1.0000 0.04540  0.04540  0.95460  Biso   1.000  O 
  O6       1.0000 0.95460  0.95460  0.95460  Biso   1.000  O 
  O7       1.0000 0.04540  0.95460  0.04540  Biso   1.000  O 
  O8       1.0000 0.95460  0.04540  0.04540  Biso   1.000  O 
  O9       1.0000 0.04540  0.54540  0.54540  Biso   1.000  O 
  O10      1.0000 0.95460  0.45460  0.54540  Biso   1.000  O 
  O11      1.0000 0.95460  0.54540  0.45460  Biso   1.000  O 
  O12      1.0000 0.04540  0.45460  0.45460  Biso   1.000  O 
  O13      1.0000 0.04540  0.54540  0.45460  Biso   1.000  O 
  O14      1.0000 0.95460  0.45460  0.45460  Biso   1.000  O 
  O15      1.0000 0.04540  0.45460  0.54540  Biso   1.000  O 
  O16      1.0000 0.95460  0.54540  0.54540  Biso   1.000  O 
  O17      1.0000 0.54540  0.04540  0.54540  Biso   1.000  O 
  O18      1.0000 0.45460  0.95460  0.54540  Biso   1.000  O 
  O19      1.0000 0.45460  0.04540  0.45460  Biso   1.000  O 
  O20      1.0000 0.54540  0.95460  0.45460  Biso   1.000  O 
  O21      1.0000 0.54540  0.04540  0.45460  Biso   1.000  O 
  O22      1.0000 0.45460  0.95460  0.45460  Biso   1.000  O 
  O23      1.0000 0.54540  0.95460  0.54540  Biso   1.000  O 
  O24      1.0000 0.45460  0.04540  0.54540  Biso   1.000  O 
  O25      1.0000 0.54540  0.54540  0.04540  Biso   1.000  O 
  O26      1.0000 0.45460  0.45460  0.04540  Biso   1.000  O 
  O27      1.0000 0.45460  0.54540  0.95460  Biso   1.000  O 
  O28      1.0000 0.54540  0.45460  0.95460  Biso   1.000  O 
  O29      1.0000 0.54540  0.54540  0.95460  Biso   1.000  O 
  O30      1.0000 0.45460  0.45460  0.95460  Biso   1.000  O 
  O31      1.0000 0.54540  0.45460  0.04540  Biso   1.000  O 
  O32      1.0000 0.45460  0.54540  0.04540  Biso   1.000  O 
  O33      1.0000 0.13260  0.00000  0.07190  Biso   1.000  O 
  C1       1.0000 0.11720  0.00000  0.11720  Biso   1.000  C 
  O34      1.0000 0.07190  0.00000  0.13260  Biso   1.000  O 
  C2       1.0000 0.15650  0.00000  0.15650  Biso   1.000  C 
  C3       1.0000 0.20580  0.00000  0.14470  Biso   1.000  C 
  C4       1.0000 0.14470  0.00000  0.20580  Biso   1.000  C 
  C5       1.0000 0.24200  0.00000  0.17950  Biso   1.000  C 
  H1       1.0000 0.21490  0.00000  0.11140  Biso   1.000  H 
  C6       1.0000 0.17950  0.00000  0.24200  Biso   1.000  C 
  H2       1.0000 0.11140  0.00000  0.21490  Biso   1.000  H 
  C7       1.0000 0.23070  0.00000  0.23070  Biso   1.000  C 
  C8       1.0000 0.26930  0.00000  0.26930  Biso   1.000  C 
  H3       1.0000 0.27510  0.00000  0.16950  Biso   1.000  H 
  C9       1.0000 0.32050  0.00000  0.25800  Biso   1.000  C 
  H4       1.0000 0.16950  0.00000  0.27510  Biso   1.000  H 
  C10      1.0000 0.25800  0.00000  0.32050  Biso   1.000  C 
  C11      1.0000 0.35530  0.00000  0.29420  Biso   1.000  C 
  N1       1.0000 0.34210  0.01547  0.20719  Biso   1.000  N 
  C12      1.0000 0.29420  0.00000  0.35530  Biso   1.000  C 
  H5       1.0000 0.22490  0.00000  0.33050  Biso   1.000  H 
  C13      1.0000 0.34350  0.00000  0.34350  Biso   1.000  C 
  C14      1.0000 0.38280  0.00000  0.38280  Biso   1.000  C 
  H6       1.0000 0.38860  0.00000  0.28510  Biso   1.000  H 
  H7       1.0000 0.28510  0.00000  0.38860  Biso   1.000  H 
  O35      1.0000 0.42810  0.00000  0.36740  Biso   1.000  O 
  O36      1.0000 0.36740  0.00000  0.42810  Biso   1.000  O 
  H8       1.0000 0.35922  0.05061  0.20798  Biso   1.000  H 
  C15      1.0000 0.36520  0.97603  0.17513  Biso   1.000  C 
  C16      1.0000 0.42207  0.98380  0.17131  Biso   1.000  C 
  H9       1.0000 0.43009  0.02104  0.15573  Biso   1.000  H 
  C17      1.0000 0.44932  0.94522  0.13960  Biso   1.000  C 
  H10      1.0000 0.43945  0.98137  0.20836  Biso   1.000  H 
  C18      1.0000 0.43010  0.94748  0.08646  Biso   1.000  C 
  H11      1.0000 0.44062  0.90760  0.15565  Biso   1.000  H 
  H12      1.0000 0.49103  0.94901  0.14412  Biso   1.000  H 
  C19      1.0000 0.34736  0.97986  0.11987  Biso   1.000  C 
  C20      1.0000 0.37222  0.94776  0.08022  Biso   1.000  C 
  H13      1.0000 0.30966  0.96433  0.11686  Biso   1.000  H 
  H14      1.0000 0.35671  0.93894  0.19038  Biso   1.000  H 
  H15      1.0000 0.36013  0.96112  0.04335  Biso   1.000  H 
  H16      1.0000 0.35916  0.90866  0.08527  Biso   1.000  H 
  H17      1.0000 0.44139  0.91224  0.06917  Biso   1.000  H 
  H18      1.0000 0.44729  0.97917  0.06615  Biso   1.000  H 
  H19      1.0000 0.34631  0.01866  0.10490  Biso   1.000  H 
  O37      1.0000 0.86740  0.00000  0.07190  Biso   1.000  O 
  C21      1.0000 0.88280  0.00000  0.11720  Biso   1.000  C 
  O38      1.0000 0.92810  0.00000  0.13260  Biso   1.000  O 
  C22      1.0000 0.84350  0.00000  0.15650  Biso   1.000  C 
  C23      1.0000 0.79420  0.00000  0.14470  Biso   1.000  C 
  C24      1.0000 0.85530  0.00000  0.20580  Biso   1.000  C 
  C25      1.0000 0.75800  0.00000  0.17950  Biso   1.000  C 
  H20      1.0000 0.78510  0.00000  0.11140  Biso   1.000  H 
  C26      1.0000 0.82050  0.00000  0.24200  Biso   1.000  C 
  H21      1.0000 0.88860  0.00000  0.21490  Biso   1.000  H 
  C27      1.0000 0.76930  0.00000  0.23070  Biso   1.000  C 
  C28      1.0000 0.73070  0.00000  0.26930  Biso   1.000  C 
  H22      1.0000 0.72490  0.00000  0.16950  Biso   1.000  H 
  C29      1.0000 0.67950  0.00000  0.25800  Biso   1.000  C 
  H23      1.0000 0.83050  0.00000  0.27510  Biso   1.000  H 
  C30      1.0000 0.74200  0.00000  0.32050  Biso   1.000  C 
  C31      1.0000 0.64470  0.00000  0.29420  Biso   1.000  C 
  N2       1.0000 0.65790  0.98453  0.20719  Biso   1.000  N 
  C32      1.0000 0.70580  0.00000  0.35530  Biso   1.000  C 
  H24      1.0000 0.77510  0.00000  0.33050  Biso   1.000  H 
  C33      1.0000 0.65650  0.00000  0.34350  Biso   1.000  C 
  C34      1.0000 0.61720  0.00000  0.38280  Biso   1.000  C 
  H25      1.0000 0.61140  0.00000  0.28510  Biso   1.000  H 
  H26      1.0000 0.71490  0.00000  0.38860  Biso   1.000  H 
  O39      1.0000 0.57190  0.00000  0.36740  Biso   1.000  O 
  O40      1.0000 0.63260  0.00000  0.42810  Biso   1.000  O 
  H27      1.0000 0.64078  0.94939  0.20798  Biso   1.000  H 
  C35      1.0000 0.63480  0.02397  0.17513  Biso   1.000  C 
  C36      1.0000 0.57793  0.01620  0.17131  Biso   1.000  C 
  H28      1.0000 0.56991  0.97896  0.15573  Biso   1.000  H 
  C37      1.0000 0.55068  0.05478  0.13960  Biso   1.000  C 
  H29      1.0000 0.56055  0.01863  0.20836  Biso   1.000  H 
  C38      1.0000 0.56990  0.05252  0.08646  Biso   1.000  C 
  H30      1.0000 0.55938  0.09240  0.15565  Biso   1.000  H 
  H31      1.0000 0.50897  0.05099  0.14412  Biso   1.000  H 
  C39      1.0000 0.65264  0.02014  0.11987  Biso   1.000  C 
  C40      1.0000 0.62778  0.05224  0.08022  Biso   1.000  C 
  H32      1.0000 0.69034  0.03568  0.11686  Biso   1.000  H 
  H33      1.0000 0.64329  0.06106  0.19038  Biso   1.000  H 
  H34      1.0000 0.63986  0.03888  0.04335  Biso   1.000  H 
  H35      1.0000 0.64084  0.09135  0.08527  Biso   1.000  H 
  H36      1.0000 0.55861  0.08777  0.06917  Biso   1.000  H 
  H37      1.0000 0.55271  0.02083  0.06615  Biso   1.000  H 
  H38      1.0000 0.65369  0.98134  0.10490  Biso   1.000  H 
  O41      1.0000 0.86740  0.00000  0.92810  Biso   1.000  O 
  C41      1.0000 0.88280  0.00000  0.88280  Biso   1.000  C 
  O42      1.0000 0.92810  0.00000  0.86740  Biso   1.000  O 
  C42      1.0000 0.84350  0.00000  0.84350  Biso   1.000  C 
  C43      1.0000 0.79420  0.00000  0.85530  Biso   1.000  C 
  C44      1.0000 0.85530  0.00000  0.79420  Biso   1.000  C 
  C45      1.0000 0.75800  0.00000  0.82050  Biso   1.000  C 
  H39      1.0000 0.78510  0.00000  0.88860  Biso   1.000  H 
  C46      1.0000 0.82050  0.00000  0.75800  Biso   1.000  C 
  H40      1.0000 0.88860  0.00000  0.78510  Biso   1.000  H 
  C47      1.0000 0.76930  0.00000  0.76930  Biso   1.000  C 
  C48      1.0000 0.73070  0.00000  0.73070  Biso   1.000  C 
  H41      1.0000 0.72490  0.00000  0.83050  Biso   1.000  H 
  C49      1.0000 0.67950  0.00000  0.74200  Biso   1.000  C 
  H42      1.0000 0.83050  0.00000  0.72490  Biso   1.000  H 
  C50      1.0000 0.74200  0.00000  0.67950  Biso   1.000  C 
  C51      1.0000 0.64470  0.00000  0.70580  Biso   1.000  C 
  N3       1.0000 0.65790  0.01547  0.79281  Biso   1.000  N 
  C52      1.0000 0.70580  0.00000  0.64470  Biso   1.000  C 
  H43      1.0000 0.77510  0.00000  0.66950  Biso   1.000  H 
  C53      1.0000 0.65650  0.00000  0.65650  Biso   1.000  C 
  C54      1.0000 0.61720  0.00000  0.61720  Biso   1.000  C 
  H44      1.0000 0.61140  0.00000  0.71490  Biso   1.000  H 
  H45      1.0000 0.71490  0.00000  0.61140  Biso   1.000  H 
  O43      1.0000 0.57190  0.00000  0.63260  Biso   1.000  O 
  O44      1.0000 0.63260  0.00000  0.57190  Biso   1.000  O 
  H46      1.0000 0.64078  0.05061  0.79202  Biso   1.000  H 
  C55      1.0000 0.63480  0.97603  0.82487  Biso   1.000  C 
  C56      1.0000 0.57793  0.98380  0.82869  Biso   1.000  C 
  H47      1.0000 0.56991  0.02104  0.84427  Biso   1.000  H 
  C57      1.0000 0.55068  0.94522  0.86040  Biso   1.000  C 
  H48      1.0000 0.56055  0.98137  0.79164  Biso   1.000  H 
  C58      1.0000 0.56990  0.94748  0.91354  Biso   1.000  C 
  H49      1.0000 0.55938  0.90760  0.84435  Biso   1.000  H 
  H50      1.0000 0.50897  0.94901  0.85587  Biso   1.000  H 
  C59      1.0000 0.65264  0.97986  0.88013  Biso   1.000  C 
  C60      1.0000 0.62778  0.94776  0.91978  Biso   1.000  C 
  H51      1.0000 0.69034  0.96433  0.88314  Biso   1.000  H 
  H52      1.0000 0.64329  0.93894  0.80961  Biso   1.000  H 
  H53      1.0000 0.63986  0.96112  0.95665  Biso   1.000  H 
  H54      1.0000 0.64084  0.90866  0.91473  Biso   1.000  H 
  H55      1.0000 0.55861  0.91224  0.93083  Biso   1.000  H 
  H56      1.0000 0.55271  0.97917  0.93385  Biso   1.000  H 
  H57      1.0000 0.65369  0.01866  0.89510  Biso   1.000  H 
  O45      1.0000 0.13260  0.00000  0.92810  Biso   1.000  O 
  C61      1.0000 0.11720  0.00000  0.88280  Biso   1.000  C 
  O46      1.0000 0.07190  0.00000  0.86740  Biso   1.000  O 
  C62      1.0000 0.15650  0.00000  0.84350  Biso   1.000  C 
  C63      1.0000 0.20580  0.00000  0.85530  Biso   1.000  C 
  C64      1.0000 0.14470  0.00000  0.79420  Biso   1.000  C 
  C65      1.0000 0.24200  0.00000  0.82050  Biso   1.000  C 
  H58      1.0000 0.21490  0.00000  0.88860  Biso   1.000  H 
  C66      1.0000 0.17950  0.00000  0.75800  Biso   1.000  C 
  H59      1.0000 0.11140  0.00000  0.78510  Biso   1.000  H 
  C67      1.0000 0.23070  0.00000  0.76930  Biso   1.000  C 
  C68      1.0000 0.26930  0.00000  0.73070  Biso   1.000  C 
  H60      1.0000 0.27510  0.00000  0.83050  Biso   1.000  H 
  C69      1.0000 0.32050  0.00000  0.74200  Biso   1.000  C 
  H61      1.0000 0.16950  0.00000  0.72490  Biso   1.000  H 
  C70      1.0000 0.25800  0.00000  0.67950  Biso   1.000  C 
  C71      1.0000 0.35530  0.00000  0.70580  Biso   1.000  C 
  N4       1.0000 0.34210  0.98453  0.79281  Biso   1.000  N 
  C72      1.0000 0.29420  0.00000  0.64470  Biso   1.000  C 
  H62      1.0000 0.22490  0.00000  0.66950  Biso   1.000  H 
  C73      1.0000 0.34350  0.00000  0.65650  Biso   1.000  C 
  C74      1.0000 0.38280  0.00000  0.61720  Biso   1.000  C 
  H63      1.0000 0.38860  0.00000  0.71490  Biso   1.000  H 
  H64      1.0000 0.28510  0.00000  0.61140  Biso   1.000  H 
  O47      1.0000 0.42810  0.00000  0.63260  Biso   1.000  O 
  O48      1.0000 0.36740  0.00000  0.57190  Biso   1.000  O 
  H65      1.0000 0.35922  0.94939  0.79202  Biso   1.000  H 
  C75      1.0000 0.36520  0.02397  0.82487  Biso   1.000  C 
  C76      1.0000 0.42207  0.01620  0.82869  Biso   1.000  C 
  H66      1.0000 0.43009  0.97896  0.84427  Biso   1.000  H 
  C77      1.0000 0.44932  0.05478  0.86040  Biso   1.000  C 
  H67      1.0000 0.43945  0.01863  0.79164  Biso   1.000  H 
  C78      1.0000 0.43010  0.05252  0.91354  Biso   1.000  C 
  H68      1.0000 0.44062  0.09240  0.84435  Biso   1.000  H 
  H69      1.0000 0.49103  0.05099  0.85587  Biso   1.000  H 
  C79      1.0000 0.34736  0.02014  0.88013  Biso   1.000  C 
  C80      1.0000 0.37222  0.05224  0.91978  Biso   1.000  C 
  H70      1.0000 0.30966  0.03568  0.88314  Biso   1.000  H 
  H71      1.0000 0.35671  0.06106  0.80961  Biso   1.000  H 
  H72      1.0000 0.36013  0.03888  0.95665  Biso   1.000  H 
  H73      1.0000 0.35916  0.09135  0.91473  Biso   1.000  H 
  H74      1.0000 0.44139  0.08777  0.93083  Biso   1.000  H 
  H75      1.0000 0.44729  0.02083  0.93385  Biso   1.000  H 
  H76      1.0000 0.34631  0.98134  0.89510  Biso   1.000  H 
  O49      1.0000 0.07190  0.13260  0.00000  Biso   1.000  O 
  C81      1.0000 0.11720  0.11720  0.00000  Biso   1.000  C 
  O50      1.0000 0.13260  0.07190  0.00000  Biso   1.000  O 
  C82      1.0000 0.15650  0.15650  0.00000  Biso   1.000  C 
  C83      1.0000 0.14470  0.20580  0.00000  Biso   1.000  C 
  C84      1.0000 0.20580  0.14470  0.00000  Biso   1.000  C 
  C85      1.0000 0.17950  0.24200  0.00000  Biso   1.000  C 
  H77      1.0000 0.11140  0.21490  0.00000  Biso   1.000  H 
  C86      1.0000 0.24200  0.17950  0.00000  Biso   1.000  C 
  H78      1.0000 0.21490  0.11140  0.00000  Biso   1.000  H 
  C87      1.0000 0.23070  0.23070  0.00000  Biso   1.000  C 
  C88      1.0000 0.26930  0.26930  0.00000  Biso   1.000  C 
  H79      1.0000 0.16950  0.27510  0.00000  Biso   1.000  H 
  C89      1.0000 0.25800  0.32050  0.00000  Biso   1.000  C 
  H80      1.0000 0.27510  0.16950  0.00000  Biso   1.000  H 
  C90      1.0000 0.32050  0.25800  0.00000  Biso   1.000  C 
  C91      1.0000 0.29420  0.35530  0.00000  Biso   1.000  C 
  N5       1.0000 0.20605  0.34061  0.01150  Biso   1.000  N 
  C92      1.0000 0.35530  0.29420  0.00000  Biso   1.000  C 
  H81      1.0000 0.33050  0.22490  0.00000  Biso   1.000  H 
  C93      1.0000 0.34350  0.34350  0.00000  Biso   1.000  C 
  C94      1.0000 0.38280  0.38280  0.00000  Biso   1.000  C 
  H82      1.0000 0.28510  0.38860  0.00000  Biso   1.000  H 
  H83      1.0000 0.38860  0.28510  0.00000  Biso   1.000  H 
  O51      1.0000 0.36740  0.42810  0.00000  Biso   1.000  O 
  O52      1.0000 0.42810  0.36740  0.00000  Biso   1.000  O 
  H84      1.0000 0.20926  0.36511  0.04158  Biso   1.000  H 
  C95      1.0000 0.18533  0.36658  0.96798  Biso   1.000  C 
  C96      1.0000 0.14240  0.40137  0.98213  Biso   1.000  C 
  H85      1.0000 0.11087  0.37950  0.99773  Biso   1.000  H 
  C97      1.0000 0.12543  0.43163  0.93575  Biso   1.000  C 
  H86      1.0000 0.15620  0.42812  0.01047  Biso   1.000  H 
  C98      1.0000 0.10858  0.39728  0.89291  Biso   1.000  C 
  H87      1.0000 0.15588  0.45682  0.92370  Biso   1.000  H 
  H88      1.0000 0.09338  0.45520  0.94698  Biso   1.000  H 
  C99      1.0000 0.16720  0.33119  0.92535  Biso   1.000  C 
  C100     1.0000 0.15102  0.36235  0.87894  Biso   1.000  C 
  H89      1.0000 0.19811  0.30592  0.91317  Biso   1.000  H 
  H90      1.0000 0.21413  0.39105  0.95171  Biso   1.000  H 
  H91      1.0000 0.13800  0.33706  0.84912  Biso   1.000  H 
  H92      1.0000 0.18273  0.38514  0.86472  Biso   1.000  H 
  H93      1.0000 0.09903  0.42043  0.86021  Biso   1.000  H 
  H94      1.0000 0.07469  0.37687  0.90488  Biso   1.000  H 
  H95      1.0000 0.13473  0.30874  0.93840  Biso   1.000  H 
  O53      1.0000 0.07190  0.86740  0.00000  Biso   1.000  O 
  C101     1.0000 0.11720  0.88280  0.00000  Biso   1.000  C 
  O54      1.0000 0.13260  0.92810  0.00000  Biso   1.000  O 
  C102     1.0000 0.15650  0.84350  0.00000  Biso   1.000  C 
  C103     1.0000 0.14470  0.79420  0.00000  Biso   1.000  C 
  C104     1.0000 0.20580  0.85530  0.00000  Biso   1.000  C 
  C105     1.0000 0.17950  0.75800  0.00000  Biso   1.000  C 
  H96      1.0000 0.11140  0.78510  0.00000  Biso   1.000  H 
  C106     1.0000 0.24200  0.82050  0.00000  Biso   1.000  C 
  H97      1.0000 0.21490  0.88860  0.00000  Biso   1.000  H 
  C107     1.0000 0.23070  0.76930  0.00000  Biso   1.000  C 
  C108     1.0000 0.26930  0.73070  0.00000  Biso   1.000  C 
  H98      1.0000 0.16950  0.72490  0.00000  Biso   1.000  H 
  C109     1.0000 0.25800  0.67950  0.00000  Biso   1.000  C 
  H99      1.0000 0.27510  0.83050  0.00000  Biso   1.000  H 
  C110     1.0000 0.32050  0.74200  0.00000  Biso   1.000  C 
  C111     1.0000 0.29420  0.64470  0.00000  Biso   1.000  C 
  N6       1.0000 0.20605  0.65939  0.98850  Biso   1.000  N 
  C112     1.0000 0.35530  0.70580  0.00000  Biso   1.000  C 
  H100     1.0000 0.33050  0.77510  0.00000  Biso   1.000  H 
  C113     1.0000 0.34350  0.65650  0.00000  Biso   1.000  C 
  C114     1.0000 0.38280  0.61720  0.00000  Biso   1.000  C 
  H101     1.0000 0.28510  0.61140  0.00000  Biso   1.000  H 
  H102     1.0000 0.38860  0.71490  0.00000  Biso   1.000  H 
  O55      1.0000 0.36740  0.57190  0.00000  Biso   1.000  O 
  O56      1.0000 0.42810  0.63260  0.00000  Biso   1.000  O 
  H103     1.0000 0.20926  0.63489  0.95842  Biso   1.000  H 
  C115     1.0000 0.18533  0.63342  0.03202  Biso   1.000  C 
  C116     1.0000 0.14240  0.59863  0.01787  Biso   1.000  C 
  H104     1.0000 0.11087  0.62050  0.00227  Biso   1.000  H 
  C117     1.0000 0.12543  0.56837  0.06425  Biso   1.000  C 
  H105     1.0000 0.15620  0.57188  0.98953  Biso   1.000  H 
  C118     1.0000 0.10858  0.60272  0.10709  Biso   1.000  C 
  H106     1.0000 0.15588  0.54318  0.07630  Biso   1.000  H 
  H107     1.0000 0.09338  0.54480  0.05302  Biso   1.000  H 
  C119     1.0000 0.16720  0.66881  0.07465  Biso   1.000  C 
  C120     1.0000 0.15102  0.63765  0.12106  Biso   1.000  C 
  H108     1.0000 0.19811  0.69407  0.08683  Biso   1.000  H 
  H109     1.0000 0.21413  0.60895  0.04829  Biso   1.000  H 
  H110     1.0000 0.13800  0.66294  0.15089  Biso   1.000  H 
  H111     1.0000 0.18273  0.61486  0.13528  Biso   1.000  H 
  H112     1.0000 0.09903  0.57957  0.13979  Biso   1.000  H 
  H113     1.0000 0.07469  0.62313  0.09512  Biso   1.000  H 
  H114     1.0000 0.13473  0.69126  0.06160  Biso   1.000  H 
  O57      1.0000 0.92810  0.86740  0.00000  Biso   1.000  O 
  C121     1.0000 0.88280  0.88280  0.00000  Biso   1.000  C 
  O58      1.0000 0.86740  0.92810  0.00000  Biso   1.000  O 
  C122     1.0000 0.84350  0.84350  0.00000  Biso   1.000  C 
  C123     1.0000 0.85530  0.79420  0.00000  Biso   1.000  C 
  C124     1.0000 0.79420  0.85530  0.00000  Biso   1.000  C 
  C125     1.0000 0.82050  0.75800  0.00000  Biso   1.000  C 
  H115     1.0000 0.88860  0.78510  0.00000  Biso   1.000  H 
  C126     1.0000 0.75800  0.82050  0.00000  Biso   1.000  C 
  H116     1.0000 0.78510  0.88860  0.00000  Biso   1.000  H 
  C127     1.0000 0.76930  0.76930  0.00000  Biso   1.000  C 
  C128     1.0000 0.73070  0.73070  0.00000  Biso   1.000  C 
  H117     1.0000 0.83050  0.72490  0.00000  Biso   1.000  H 
  C129     1.0000 0.74200  0.67950  0.00000  Biso   1.000  C 
  H118     1.0000 0.72490  0.83050  0.00000  Biso   1.000  H 
  C130     1.0000 0.67950  0.74200  0.00000  Biso   1.000  C 
  C131     1.0000 0.70580  0.64470  0.00000  Biso   1.000  C 
  N7       1.0000 0.79395  0.65939  0.01150  Biso   1.000  N 
  C132     1.0000 0.64470  0.70580  0.00000  Biso   1.000  C 
  H119     1.0000 0.66950  0.77510  0.00000  Biso   1.000  H 
  C133     1.0000 0.65650  0.65650  0.00000  Biso   1.000  C 
  C134     1.0000 0.61720  0.61720  0.00000  Biso   1.000  C 
  H120     1.0000 0.71490  0.61140  0.00000  Biso   1.000  H 
  H121     1.0000 0.61140  0.71490  0.00000  Biso   1.000  H 
  O59      1.0000 0.63260  0.57190  0.00000  Biso   1.000  O 
  O60      1.0000 0.57190  0.63260  0.00000  Biso   1.000  O 
  H122     1.0000 0.79074  0.63489  0.04158  Biso   1.000  H 
  C135     1.0000 0.81467  0.63342  0.96798  Biso   1.000  C 
  C136     1.0000 0.85760  0.59863  0.98213  Biso   1.000  C 
  H123     1.0000 0.88913  0.62050  0.99773  Biso   1.000  H 
  C137     1.0000 0.87457  0.56837  0.93575  Biso   1.000  C 
  H124     1.0000 0.84380  0.57188  0.01047  Biso   1.000  H 
  C138     1.0000 0.89142  0.60272  0.89291  Biso   1.000  C 
  H125     1.0000 0.84412  0.54318  0.92370  Biso   1.000  H 
  H126     1.0000 0.90662  0.54480  0.94698  Biso   1.000  H 
  C139     1.0000 0.83280  0.66881  0.92535  Biso   1.000  C 
  C140     1.0000 0.84898  0.63765  0.87894  Biso   1.000  C 
  H127     1.0000 0.80189  0.69407  0.91317  Biso   1.000  H 
  H128     1.0000 0.78587  0.60895  0.95171  Biso   1.000  H 
  H129     1.0000 0.86201  0.66294  0.84912  Biso   1.000  H 
  H130     1.0000 0.81727  0.61486  0.86472  Biso   1.000  H 
  H131     1.0000 0.90097  0.57957  0.86021  Biso   1.000  H 
  H132     1.0000 0.92531  0.62313  0.90488  Biso   1.000  H 
  H133     1.0000 0.86527  0.69126  0.93840  Biso   1.000  H 
  O61      1.0000 0.92810  0.13260  0.00000  Biso   1.000  O 
  C141     1.0000 0.88280  0.11720  0.00000  Biso   1.000  C 
  O62      1.0000 0.86740  0.07190  0.00000  Biso   1.000  O 
  C142     1.0000 0.84350  0.15650  0.00000  Biso   1.000  C 
  C143     1.0000 0.85530  0.20580  0.00000  Biso   1.000  C 
  C144     1.0000 0.79420  0.14470  0.00000  Biso   1.000  C 
  C145     1.0000 0.82050  0.24200  0.00000  Biso   1.000  C 
  H134     1.0000 0.88860  0.21490  0.00000  Biso   1.000  H 
  C146     1.0000 0.75800  0.17950  0.00000  Biso   1.000  C 
  H135     1.0000 0.78510  0.11140  0.00000  Biso   1.000  H 
  C147     1.0000 0.76930  0.23070  0.00000  Biso   1.000  C 
  C148     1.0000 0.73070  0.26930  0.00000  Biso   1.000  C 
  H136     1.0000 0.83050  0.27510  0.00000  Biso   1.000  H 
  C149     1.0000 0.74200  0.32050  0.00000  Biso   1.000  C 
  H137     1.0000 0.72490  0.16950  0.00000  Biso   1.000  H 
  C150     1.0000 0.67950  0.25800  0.00000  Biso   1.000  C 
  C151     1.0000 0.70580  0.35530  0.00000  Biso   1.000  C 
  N8       1.0000 0.79395  0.34061  0.98850  Biso   1.000  N 
  C152     1.0000 0.64470  0.29420  0.00000  Biso   1.000  C 
  H138     1.0000 0.66950  0.22490  0.00000  Biso   1.000  H 
  C153     1.0000 0.65650  0.34350  0.00000  Biso   1.000  C 
  C154     1.0000 0.61720  0.38280  0.00000  Biso   1.000  C 
  H139     1.0000 0.71490  0.38860  0.00000  Biso   1.000  H 
  H140     1.0000 0.61140  0.28510  0.00000  Biso   1.000  H 
  O63      1.0000 0.63260  0.42810  0.00000  Biso   1.000  O 
  O64      1.0000 0.57190  0.36740  0.00000  Biso   1.000  O 
  H141     1.0000 0.79074  0.36511  0.95842  Biso   1.000  H 
  C155     1.0000 0.81467  0.36658  0.03202  Biso   1.000  C 
  C156     1.0000 0.85760  0.40137  0.01787  Biso   1.000  C 
  H142     1.0000 0.88913  0.37950  0.00227  Biso   1.000  H 
  C157     1.0000 0.87457  0.43163  0.06425  Biso   1.000  C 
  H143     1.0000 0.84380  0.42812  0.98953  Biso   1.000  H 
  C158     1.0000 0.89142  0.39728  0.10709  Biso   1.000  C 
  H144     1.0000 0.84412  0.45682  0.07630  Biso   1.000  H 
  H145     1.0000 0.90662  0.45520  0.05302  Biso   1.000  H 
  C159     1.0000 0.83280  0.33119  0.07465  Biso   1.000  C 
  C160     1.0000 0.84898  0.36235  0.12106  Biso   1.000  C 
  H146     1.0000 0.80189  0.30592  0.08683  Biso   1.000  H 
  H147     1.0000 0.78587  0.39105  0.04829  Biso   1.000  H 
  H148     1.0000 0.86201  0.33706  0.15089  Biso   1.000  H 
  H149     1.0000 0.81727  0.38514  0.13528  Biso   1.000  H 
  H150     1.0000 0.90097  0.42043  0.13979  Biso   1.000  H 
  H151     1.0000 0.92531  0.37687  0.09512  Biso   1.000  H 
  H152     1.0000 0.86527  0.30874  0.06160  Biso   1.000  H 
  O65      1.0000 0.00000  0.07190  0.13260  Biso   1.000  O 
  C161     1.0000 0.00000  0.11720  0.11720  Biso   1.000  C 
  O66      1.0000 0.00000  0.13260  0.07190  Biso   1.000  O 
  C162     1.0000 0.00000  0.15650  0.15650  Biso   1.000  C 
  C163     1.0000 0.00000  0.14470  0.20580  Biso   1.000  C 
  C164     1.0000 0.00000  0.20580  0.14470  Biso   1.000  C 
  C165     1.0000 0.00000  0.17950  0.24200  Biso   1.000  C 
  H153     1.0000 0.00000  0.11140  0.21490  Biso   1.000  H 
  C166     1.0000 0.00000  0.24200  0.17950  Biso   1.000  C 
  H154     1.0000 0.00000  0.21490  0.11140  Biso   1.000  H 
  C167     1.0000 0.00000  0.23070  0.23070  Biso   1.000  C 
  C168     1.0000 0.00000  0.26930  0.26930  Biso   1.000  C 
  H155     1.0000 0.00000  0.16950  0.27510  Biso   1.000  H 
  C169     1.0000 0.00000  0.25800  0.32050  Biso   1.000  C 
  H156     1.0000 0.00000  0.27510  0.16950  Biso   1.000  H 
  C170     1.0000 0.00000  0.32050  0.25800  Biso   1.000  C 
  C171     1.0000 0.00000  0.29420  0.35530  Biso   1.000  C 
  N9       1.0000 0.00822  0.20603  0.34141  Biso   1.000  N 
  C172     1.0000 0.00000  0.35530  0.29420  Biso   1.000  C 
  H157     1.0000 0.00000  0.33050  0.22490  Biso   1.000  H 
  C173     1.0000 0.00000  0.34350  0.34350  Biso   1.000  C 
  C174     1.0000 0.00000  0.38280  0.38280  Biso   1.000  C 
  H158     1.0000 0.00000  0.28510  0.38860  Biso   1.000  H 
  H159     1.0000 0.00000  0.38860  0.28510  Biso   1.000  H 
  O67      1.0000 0.00000  0.36740  0.42810  Biso   1.000  O 
  O68      1.0000 0.00000  0.42810  0.36740  Biso   1.000  O 
  H160     1.0000 0.03860  0.20497  0.36560  Biso   1.000  H 
  C175     1.0000 0.96044  0.18336  0.35997  Biso   1.000  C 
  C176     1.0000 0.96441  0.18021  0.41602  Biso   1.000  C 
  H161     1.0000 0.00084  0.16502  0.42635  Biso   1.000  H 
  C177     1.0000 0.93020  0.14623  0.44639  Biso   1.000  C 
  H162     1.0000 0.96077  0.21793  0.43154  Biso   1.000  H 
  C178     1.0000 0.91802  0.09512  0.42266  Biso   1.000  C 
  H163     1.0000 0.89546  0.16695  0.44778  Biso   1.000  H 
  H164     1.0000 0.94391  0.14173  0.48609  Biso   1.000  H 
  C179     1.0000 0.94777  0.13104  0.33766  Biso   1.000  C 
  C180     1.0000 0.90911  0.09579  0.36519  Biso   1.000  C 
  H165     1.0000 0.93224  0.13735  0.30012  Biso   1.000  H 
  H166     1.0000 0.92950  0.20871  0.35012  Biso   1.000  H 
  H167     1.0000 0.91034  0.05784  0.34883  Biso   1.000  H 
  H168     1.0000 0.87286  0.11083  0.35580  Biso   1.000  H 
  H169     1.0000 0.88593  0.07609  0.44153  Biso   1.000  H 
  H170     1.0000 0.95197  0.07339  0.43022  Biso   1.000  H 
  H171     1.0000 0.98337  0.11010  0.33381  Biso   1.000  H 
  O69      1.0000 0.00000  0.07190  0.86740  Biso   1.000  O 
  C181     1.0000 0.00000  0.11720  0.88280  Biso   1.000  C 
  O70      1.0000 0.00000  0.13260  0.92810  Biso   1.000  O 
  C182     1.0000 0.00000  0.15650  0.84350  Biso   1.000  C 
  C183     1.0000 0.00000  0.14470  0.79420  Biso   1.000  C 
  C184     1.0000 0.00000  0.20580  0.85530  Biso   1.000  C 
  C185     1.0000 0.00000  0.17950  0.75800  Biso   1.000  C 
  H172     1.0000 0.00000  0.11140  0.78510  Biso   1.000  H 
  C186     1.0000 0.00000  0.24200  0.82050  Biso   1.000  C 
  H173     1.0000 0.00000  0.21490  0.88860  Biso   1.000  H 
  C187     1.0000 0.00000  0.23070  0.76930  Biso   1.000  C 
  C188     1.0000 0.00000  0.26930  0.73070  Biso   1.000  C 
  H174     1.0000 0.00000  0.16950  0.72490  Biso   1.000  H 
  C189     1.0000 0.00000  0.25800  0.67950  Biso   1.000  C 
  H175     1.0000 0.00000  0.27510  0.83050  Biso   1.000  H 
  C190     1.0000 0.00000  0.32050  0.74200  Biso   1.000  C 
  C191     1.0000 0.00000  0.29420  0.64470  Biso   1.000  C 
  N10      1.0000 0.99178  0.20603  0.65859  Biso   1.000  N 
  C192     1.0000 0.00000  0.35530  0.70580  Biso   1.000  C 
  H176     1.0000 0.00000  0.33050  0.77510  Biso   1.000  H 
  C193     1.0000 0.00000  0.34350  0.65650  Biso   1.000  C 
  C194     1.0000 0.00000  0.38280  0.61720  Biso   1.000  C 
  H177     1.0000 0.00000  0.28510  0.61140  Biso   1.000  H 
  H178     1.0000 0.00000  0.38860  0.71490  Biso   1.000  H 
  O71      1.0000 0.00000  0.36740  0.57190  Biso   1.000  O 
  O72      1.0000 0.00000  0.42810  0.63260  Biso   1.000  O 
  H179     1.0000 0.96140  0.20497  0.63440  Biso   1.000  H 
  C195     1.0000 0.03956  0.18336  0.64003  Biso   1.000  C 
  C196     1.0000 0.03559  0.18021  0.58398  Biso   1.000  C 
  H180     1.0000 0.99916  0.16502  0.57365  Biso   1.000  H 
  C197     1.0000 0.06980  0.14623  0.55361  Biso   1.000  C 
  H181     1.0000 0.03922  0.21793  0.56846  Biso   1.000  H 
  C198     1.0000 0.08197  0.09512  0.57734  Biso   1.000  C 
  H182     1.0000 0.10454  0.16695  0.55222  Biso   1.000  H 
  H183     1.0000 0.05609  0.14173  0.51391  Biso   1.000  H 
  C199     1.0000 0.05223  0.13104  0.66234  Biso   1.000  C 
  C200     1.0000 0.09090  0.09579  0.63480  Biso   1.000  C 
  H184     1.0000 0.06776  0.13735  0.69988  Biso   1.000  H 
  H185     1.0000 0.07050  0.20871  0.64988  Biso   1.000  H 
  H186     1.0000 0.08967  0.05784  0.65117  Biso   1.000  H 
  H187     1.0000 0.12714  0.11083  0.64420  Biso   1.000  H 
  H188     1.0000 0.11407  0.07609  0.55847  Biso   1.000  H 
  H189     1.0000 0.04802  0.07339  0.56978  Biso   1.000  H 
  H190     1.0000 0.01663  0.11010  0.66620  Biso   1.000  H 
  O73      1.0000 0.00000  0.92810  0.86740  Biso   1.000  O 
  C201     1.0000 0.00000  0.88280  0.88280  Biso   1.000  C 
  O74      1.0000 0.00000  0.86740  0.92810  Biso   1.000  O 
  C202     1.0000 0.00000  0.84350  0.84350  Biso   1.000  C 
  C203     1.0000 0.00000  0.85530  0.79420  Biso   1.000  C 
  C204     1.0000 0.00000  0.79420  0.85530  Biso   1.000  C 
  C205     1.0000 0.00000  0.82050  0.75800  Biso   1.000  C 
  H191     1.0000 0.00000  0.88860  0.78510  Biso   1.000  H 
  C206     1.0000 0.00000  0.75800  0.82050  Biso   1.000  C 
  H192     1.0000 0.00000  0.78510  0.88860  Biso   1.000  H 
  C207     1.0000 0.00000  0.76930  0.76930  Biso   1.000  C 
  C208     1.0000 0.00000  0.73070  0.73070  Biso   1.000  C 
  H193     1.0000 0.00000  0.83050  0.72490  Biso   1.000  H 
  C209     1.0000 0.00000  0.74200  0.67950  Biso   1.000  C 
  H194     1.0000 0.00000  0.72490  0.83050  Biso   1.000  H 
  C210     1.0000 0.00000  0.67950  0.74200  Biso   1.000  C 
  C211     1.0000 0.00000  0.70580  0.64470  Biso   1.000  C 
  N11      1.0000 0.00822  0.79397  0.65859  Biso   1.000  N 
  C212     1.0000 0.00000  0.64470  0.70580  Biso   1.000  C 
  H195     1.0000 0.00000  0.66950  0.77510  Biso   1.000  H 
  C213     1.0000 0.00000  0.65650  0.65650  Biso   1.000  C 
  C214     1.0000 0.00000  0.61720  0.61720  Biso   1.000  C 
  H196     1.0000 0.00000  0.71490  0.61140  Biso   1.000  H 
  H197     1.0000 0.00000  0.61140  0.71490  Biso   1.000  H 
  O75      1.0000 0.00000  0.63260  0.57190  Biso   1.000  O 
  O76      1.0000 0.00000  0.57190  0.63260  Biso   1.000  O 
  H198     1.0000 0.03860  0.79503  0.63440  Biso   1.000  H 
  C215     1.0000 0.96044  0.81664  0.64003  Biso   1.000  C 
  C216     1.0000 0.96441  0.81979  0.58398  Biso   1.000  C 
  H199     1.0000 0.00084  0.83498  0.57365  Biso   1.000  H 
  C217     1.0000 0.93020  0.85377  0.55361  Biso   1.000  C 
  H200     1.0000 0.96077  0.78207  0.56846  Biso   1.000  H 
  C218     1.0000 0.91802  0.90487  0.57734  Biso   1.000  C 
  H201     1.0000 0.89546  0.83305  0.55222  Biso   1.000  H 
  H202     1.0000 0.94391  0.85827  0.51391  Biso   1.000  H 
  C219     1.0000 0.94777  0.86896  0.66234  Biso   1.000  C 
  C220     1.0000 0.90911  0.90421  0.63480  Biso   1.000  C 
  H203     1.0000 0.93224  0.86265  0.69988  Biso   1.000  H 
  H204     1.0000 0.92950  0.79129  0.64988  Biso   1.000  H 
  H205     1.0000 0.91034  0.94216  0.65117  Biso   1.000  H 
  H206     1.0000 0.87286  0.88917  0.64420  Biso   1.000  H 
  H207     1.0000 0.88593  0.92391  0.55847  Biso   1.000  H 
  H208     1.0000 0.95197  0.92661  0.56978  Biso   1.000  H 
  H209     1.0000 0.98337  0.88990  0.66620  Biso   1.000  H 
  O77      1.0000 0.00000  0.92810  0.13260  Biso   1.000  O 
  C221     1.0000 0.00000  0.88280  0.11720  Biso   1.000  C 
  O78      1.0000 0.00000  0.86740  0.07190  Biso   1.000  O 
  C222     1.0000 0.00000  0.84350  0.15650  Biso   1.000  C 
  C223     1.0000 0.00000  0.85530  0.20580  Biso   1.000  C 
  C224     1.0000 0.00000  0.79420  0.14470  Biso   1.000  C 
  C225     1.0000 0.00000  0.82050  0.24200  Biso   1.000  C 
  H210     1.0000 0.00000  0.88860  0.21490  Biso   1.000  H 
  C226     1.0000 0.00000  0.75800  0.17950  Biso   1.000  C 
  H211     1.0000 0.00000  0.78510  0.11140  Biso   1.000  H 
  C227     1.0000 0.00000  0.76930  0.23070  Biso   1.000  C 
  C228     1.0000 0.00000  0.73070  0.26930  Biso   1.000  C 
  H212     1.0000 0.00000  0.83050  0.27510  Biso   1.000  H 
  C229     1.0000 0.00000  0.74200  0.32050  Biso   1.000  C 
  H213     1.0000 0.00000  0.72490  0.16950  Biso   1.000  H 
  C230     1.0000 0.00000  0.67950  0.25800  Biso   1.000  C 
  C231     1.0000 0.00000  0.70580  0.35530  Biso   1.000  C 
  N12      1.0000 0.99178  0.79397  0.34141  Biso   1.000  N 
  C232     1.0000 0.00000  0.64470  0.29420  Biso   1.000  C 
  H214     1.0000 0.00000  0.66950  0.22490  Biso   1.000  H 
  C233     1.0000 0.00000  0.65650  0.34350  Biso   1.000  C 
  C234     1.0000 0.00000  0.61720  0.38280  Biso   1.000  C 
  H215     1.0000 0.00000  0.71490  0.38860  Biso   1.000  H 
  H216     1.0000 0.00000  0.61140  0.28510  Biso   1.000  H 
  O79      1.0000 0.00000  0.63260  0.42810  Biso   1.000  O 
  O80      1.0000 0.00000  0.57190  0.36740  Biso   1.000  O 
  H217     1.0000 0.96140  0.79503  0.36560  Biso   1.000  H 
  C235     1.0000 0.03956  0.81664  0.35997  Biso   1.000  C 
  C236     1.0000 0.03559  0.81979  0.41602  Biso   1.000  C 
  H218     1.0000 0.99916  0.83498  0.42635  Biso   1.000  H 
  C237     1.0000 0.06980  0.85377  0.44639  Biso   1.000  C 
  H219     1.0000 0.03922  0.78207  0.43154  Biso   1.000  H 
  C238     1.0000 0.08197  0.90487  0.42266  Biso   1.000  C 
  H220     1.0000 0.10454  0.83305  0.44778  Biso   1.000  H 
  H221     1.0000 0.05609  0.85827  0.48609  Biso   1.000  H 
  C239     1.0000 0.05223  0.86896  0.33766  Biso   1.000  C 
  C240     1.0000 0.09090  0.90421  0.36519  Biso   1.000  C 
  H222     1.0000 0.06776  0.86265  0.30012  Biso   1.000  H 
  H223     1.0000 0.07050  0.79129  0.35012  Biso   1.000  H 
  H224     1.0000 0.08967  0.94216  0.34883  Biso   1.000  H 
  H225     1.0000 0.12714  0.88917  0.35580  Biso   1.000  H 
  H226     1.0000 0.11407  0.92391  0.44153  Biso   1.000  H 
  H227     1.0000 0.04802  0.92661  0.43022  Biso   1.000  H 
  H228     1.0000 0.01663  0.88990  0.33381  Biso   1.000  H 
  O81      1.0000 0.13260  0.50000  0.57190  Biso   1.000  O 
  C241     1.0000 0.11720  0.50000  0.61720  Biso   1.000  C 
  O82      1.0000 0.07190  0.50000  0.63260  Biso   1.000  O 
  C242     1.0000 0.15650  0.50000  0.65650  Biso   1.000  C 
  C243     1.0000 0.20580  0.50000  0.64470  Biso   1.000  C 
  C244     1.0000 0.14470  0.50000  0.70580  Biso   1.000  C 
  C245     1.0000 0.24200  0.50000  0.67950  Biso   1.000  C 
  H229     1.0000 0.21490  0.50000  0.61140  Biso   1.000  H 
  C246     1.0000 0.17950  0.50000  0.74200  Biso   1.000  C 
  H230     1.0000 0.11140  0.50000  0.71490  Biso   1.000  H 
  C247     1.0000 0.23070  0.50000  0.73070  Biso   1.000  C 
  C248     1.0000 0.26930  0.50000  0.76930  Biso   1.000  C 
  H231     1.0000 0.27510  0.50000  0.66950  Biso   1.000  H 
  C249     1.0000 0.32050  0.50000  0.75800  Biso   1.000  C 
  H232     1.0000 0.16950  0.50000  0.77510  Biso   1.000  H 
  C250     1.0000 0.25800  0.50000  0.82050  Biso   1.000  C 
  C251     1.0000 0.35530  0.50000  0.79420  Biso   1.000  C 
  N13      1.0000 0.34185  0.49176  0.70535  Biso   1.000  N 
  C252     1.0000 0.29420  0.50000  0.85530  Biso   1.000  C 
  H233     1.0000 0.22490  0.50000  0.83050  Biso   1.000  H 
  C253     1.0000 0.34350  0.50000  0.84350  Biso   1.000  C 
  C254     1.0000 0.38280  0.50000  0.88280  Biso   1.000  C 
  H234     1.0000 0.38860  0.50000  0.78510  Biso   1.000  H 
  H235     1.0000 0.28510  0.50000  0.88860  Biso   1.000  H 
  O83      1.0000 0.42810  0.50000  0.86740  Biso   1.000  O 
  O84      1.0000 0.36740  0.50000  0.92810  Biso   1.000  O 
  H236     1.0000 0.36555  0.52141  0.69703  Biso   1.000  H 
  C255     1.0000 0.36515  0.44249  0.69175  Biso   1.000  C 
  C256     1.0000 0.41853  0.44733  0.66742  Biso   1.000  C 
  H237     1.0000 0.41661  0.47534  0.63704  Biso   1.000  H 
  C257     1.0000 0.43870  0.39846  0.64318  Biso   1.000  C 
  H238     1.0000 0.44593  0.45990  0.69578  Biso   1.000  H 
  C258     1.0000 0.40163  0.37211  0.60802  Biso   1.000  C 
  H239     1.0000 0.44754  0.37155  0.67316  Biso   1.000  H 
  H240     1.0000 0.47369  0.40751  0.62364  Biso   1.000  H 
  C259     1.0000 0.33046  0.41569  0.65424  Biso   1.000  C 
  C260     1.0000 0.35149  0.36507  0.63561  Biso   1.000  C 
  H241     1.0000 0.29393  0.40951  0.67283  Biso   1.000  H 
  H242     1.0000 0.37007  0.41945  0.72568  Biso   1.000  H 
  H243     1.0000 0.32309  0.34606  0.61235  Biso   1.000  H 
  H244     1.0000 0.35969  0.34146  0.66888  Biso   1.000  H 
  H245     1.0000 0.41751  0.33625  0.59533  Biso   1.000  H 
  H246     1.0000 0.39645  0.39627  0.57503  Biso   1.000  H 
  H247     1.0000 0.32573  0.44070  0.62172  Biso   1.000  H 
  O85      1.0000 0.86740  0.50000  0.57190  Biso   1.000  O 
  C261     1.0000 0.88280  0.50000  0.61720  Biso   1.000  C 
  O86      1.0000 0.92810  0.50000  0.63260  Biso   1.000  O 
  C262     1.0000 0.84350  0.50000  0.65650  Biso   1.000  C 
  C263     1.0000 0.79420  0.50000  0.64470  Biso   1.000  C 
  C264     1.0000 0.85530  0.50000  0.70580  Biso   1.000  C 
  C265     1.0000 0.75800  0.50000  0.67950  Biso   1.000  C 
  H248     1.0000 0.78510  0.50000  0.61140  Biso   1.000  H 
  C266     1.0000 0.82050  0.50000  0.74200  Biso   1.000  C 
  H249     1.0000 0.88860  0.50000  0.71490  Biso   1.000  H 
  C267     1.0000 0.76930  0.50000  0.73070  Biso   1.000  C 
  C268     1.0000 0.73070  0.50000  0.76930  Biso   1.000  C 
  H250     1.0000 0.72490  0.50000  0.66950  Biso   1.000  H 
  C269     1.0000 0.67950  0.50000  0.75800  Biso   1.000  C 
  H251     1.0000 0.83050  0.50000  0.77510  Biso   1.000  H 
  C270     1.0000 0.74200  0.50000  0.82050  Biso   1.000  C 
  C271     1.0000 0.64470  0.50000  0.79420  Biso   1.000  C 
  N14      1.0000 0.65815  0.50824  0.70535  Biso   1.000  N 
  C272     1.0000 0.70580  0.50000  0.85530  Biso   1.000  C 
  H252     1.0000 0.77510  0.50000  0.83050  Biso   1.000  H 
  C273     1.0000 0.65650  0.50000  0.84350  Biso   1.000  C 
  C274     1.0000 0.61720  0.50000  0.88280  Biso   1.000  C 
  H253     1.0000 0.61140  0.50000  0.78510  Biso   1.000  H 
  H254     1.0000 0.71490  0.50000  0.88860  Biso   1.000  H 
  O87      1.0000 0.57190  0.50000  0.86740  Biso   1.000  O 
  O88      1.0000 0.63260  0.50000  0.92810  Biso   1.000  O 
  H255     1.0000 0.63445  0.47859  0.69703  Biso   1.000  H 
  C275     1.0000 0.63485  0.55751  0.69175  Biso   1.000  C 
  C276     1.0000 0.58147  0.55267  0.66742  Biso   1.000  C 
  H256     1.0000 0.58339  0.52466  0.63704  Biso   1.000  H 
  C277     1.0000 0.56130  0.60154  0.64318  Biso   1.000  C 
  H257     1.0000 0.55407  0.54010  0.69578  Biso   1.000  H 
  C278     1.0000 0.59837  0.62789  0.60802  Biso   1.000  C 
  H258     1.0000 0.55246  0.62845  0.67316  Biso   1.000  H 
  H259     1.0000 0.52631  0.59249  0.62364  Biso   1.000  H 
  C279     1.0000 0.66954  0.58431  0.65424  Biso   1.000  C 
  C280     1.0000 0.64851  0.63493  0.63561  Biso   1.000  C 
  H260     1.0000 0.70608  0.59049  0.67283  Biso   1.000  H 
  H261     1.0000 0.62993  0.58055  0.72568  Biso   1.000  H 
  H262     1.0000 0.67691  0.65394  0.61235  Biso   1.000  H 
  H263     1.0000 0.64031  0.65854  0.66888  Biso   1.000  H 
  H264     1.0000 0.58249  0.66375  0.59533  Biso   1.000  H 
  H265     1.0000 0.60355  0.60373  0.57503  Biso   1.000  H 
  H266     1.0000 0.67427  0.55930  0.62172  Biso   1.000  H 
  O89      1.0000 0.86740  0.50000  0.42810  Biso   1.000  O 
  C281     1.0000 0.88280  0.50000  0.38280  Biso   1.000  C 
  O90      1.0000 0.92810  0.50000  0.36740  Biso   1.000  O 
  C282     1.0000 0.84350  0.50000  0.34350  Biso   1.000  C 
  C283     1.0000 0.79420  0.50000  0.35530  Biso   1.000  C 
  C284     1.0000 0.85530  0.50000  0.29420  Biso   1.000  C 
  C285     1.0000 0.75800  0.50000  0.32050  Biso   1.000  C 
  H267     1.0000 0.78510  0.50000  0.38860  Biso   1.000  H 
  C286     1.0000 0.82050  0.50000  0.25800  Biso   1.000  C 
  H268     1.0000 0.88860  0.50000  0.28510  Biso   1.000  H 
  C287     1.0000 0.76930  0.50000  0.26930  Biso   1.000  C 
  C288     1.0000 0.73070  0.50000  0.23070  Biso   1.000  C 
  H269     1.0000 0.72490  0.50000  0.33050  Biso   1.000  H 
  C289     1.0000 0.67950  0.50000  0.24200  Biso   1.000  C 
  H270     1.0000 0.83050  0.50000  0.22490  Biso   1.000  H 
  C290     1.0000 0.74200  0.50000  0.17950  Biso   1.000  C 
  C291     1.0000 0.64470  0.50000  0.20580  Biso   1.000  C 
  N15      1.0000 0.65815  0.49176  0.29465  Biso   1.000  N 
  C292     1.0000 0.70580  0.50000  0.14470  Biso   1.000  C 
  H271     1.0000 0.77510  0.50000  0.16950  Biso   1.000  H 
  C293     1.0000 0.65650  0.50000  0.15650  Biso   1.000  C 
  C294     1.0000 0.61720  0.50000  0.11720  Biso   1.000  C 
  H272     1.0000 0.61140  0.50000  0.21490  Biso   1.000  H 
  H273     1.0000 0.71490  0.50000  0.11140  Biso   1.000  H 
  O91      1.0000 0.57190  0.50000  0.13260  Biso   1.000  O 
  O92      1.0000 0.63260  0.50000  0.07190  Biso   1.000  O 
  H274     1.0000 0.63445  0.52141  0.30297  Biso   1.000  H 
  C295     1.0000 0.63485  0.44249  0.30825  Biso   1.000  C 
  C296     1.0000 0.58147  0.44733  0.33258  Biso   1.000  C 
  H275     1.0000 0.58339  0.47534  0.36296  Biso   1.000  H 
  C297     1.0000 0.56130  0.39846  0.35682  Biso   1.000  C 
  H276     1.0000 0.55407  0.45990  0.30422  Biso   1.000  H 
  C298     1.0000 0.59837  0.37211  0.39198  Biso   1.000  C 
  H277     1.0000 0.55246  0.37155  0.32684  Biso   1.000  H 
  H278     1.0000 0.52631  0.40751  0.37636  Biso   1.000  H 
  C299     1.0000 0.66954  0.41569  0.34576  Biso   1.000  C 
  C300     1.0000 0.64851  0.36507  0.36439  Biso   1.000  C 
  H279     1.0000 0.70608  0.40951  0.32717  Biso   1.000  H 
  H280     1.0000 0.62993  0.41945  0.27432  Biso   1.000  H 
  H281     1.0000 0.67691  0.34606  0.38765  Biso   1.000  H 
  H282     1.0000 0.64031  0.34146  0.33112  Biso   1.000  H 
  H283     1.0000 0.58249  0.33625  0.40467  Biso   1.000  H 
  H284     1.0000 0.60355  0.39627  0.42497  Biso   1.000  H 
  H285     1.0000 0.67427  0.44070  0.37828  Biso   1.000  H 
  O93      1.0000 0.13260  0.50000  0.42810  Biso   1.000  O 
  C301     1.0000 0.11720  0.50000  0.38280  Biso   1.000  C 
  O94      1.0000 0.07190  0.50000  0.36740  Biso   1.000  O 
  C302     1.0000 0.15650  0.50000  0.34350  Biso   1.000  C 
  C303     1.0000 0.20580  0.50000  0.35530  Biso   1.000  C 
  C304     1.0000 0.14470  0.50000  0.29420  Biso   1.000  C 
  C305     1.0000 0.24200  0.50000  0.32050  Biso   1.000  C 
  H286     1.0000 0.21490  0.50000  0.38860  Biso   1.000  H 
  C306     1.0000 0.17950  0.50000  0.25800  Biso   1.000  C 
  H287     1.0000 0.11140  0.50000  0.28510  Biso   1.000  H 
  C307     1.0000 0.23070  0.50000  0.26930  Biso   1.000  C 
  C308     1.0000 0.26930  0.50000  0.23070  Biso   1.000  C 
  H288     1.0000 0.27510  0.50000  0.33050  Biso   1.000  H 
  C309     1.0000 0.32050  0.50000  0.24200  Biso   1.000  C 
  H289     1.0000 0.16950  0.50000  0.22490  Biso   1.000  H 
  C310     1.0000 0.25800  0.50000  0.17950  Biso   1.000  C 
  C311     1.0000 0.35530  0.50000  0.20580  Biso   1.000  C 
  N16      1.0000 0.34185  0.50824  0.29465  Biso   1.000  N 
  C312     1.0000 0.29420  0.50000  0.14470  Biso   1.000  C 
  H290     1.0000 0.22490  0.50000  0.16950  Biso   1.000  H 
  C313     1.0000 0.34350  0.50000  0.15650  Biso   1.000  C 
  C314     1.0000 0.38280  0.50000  0.11720  Biso   1.000  C 
  H291     1.0000 0.38860  0.50000  0.21490  Biso   1.000  H 
  H292     1.0000 0.28510  0.50000  0.11140  Biso   1.000  H 
  O95      1.0000 0.42810  0.50000  0.13260  Biso   1.000  O 
  O96      1.0000 0.36740  0.50000  0.07190  Biso   1.000  O 
  H293     1.0000 0.36555  0.47859  0.30297  Biso   1.000  H 
  C315     1.0000 0.36515  0.55751  0.30825  Biso   1.000  C 
  C316     1.0000 0.41853  0.55267  0.33258  Biso   1.000  C 
  H294     1.0000 0.41661  0.52466  0.36296  Biso   1.000  H 
  C317     1.0000 0.43870  0.60154  0.35682  Biso   1.000  C 
  H295     1.0000 0.44593  0.54010  0.30422  Biso   1.000  H 
  C318     1.0000 0.40163  0.62789  0.39198  Biso   1.000  C 
  H296     1.0000 0.44754  0.62845  0.32684  Biso   1.000  H 
  H297     1.0000 0.47369  0.59249  0.37636  Biso   1.000  H 
  C319     1.0000 0.33046  0.58431  0.34576  Biso   1.000  C 
  C320     1.0000 0.35149  0.63493  0.36439  Biso   1.000  C 
  H298     1.0000 0.29393  0.59049  0.32717  Biso   1.000  H 
  H299     1.0000 0.37007  0.58055  0.27432  Biso   1.000  H 
  H300     1.0000 0.32309  0.65394  0.38765  Biso   1.000  H 
  H301     1.0000 0.35969  0.65854  0.33112  Biso   1.000  H 
  H302     1.0000 0.41751  0.66375  0.40467  Biso   1.000  H 
  H303     1.0000 0.39645  0.60373  0.42497  Biso   1.000  H 
  H304     1.0000 0.32573  0.55930  0.37828  Biso   1.000  H 
  O97      1.0000 0.07190  0.63260  0.50000  Biso   1.000  O 
  C321     1.0000 0.11720  0.61720  0.50000  Biso   1.000  C 
  O98      1.0000 0.13260  0.57190  0.50000  Biso   1.000  O 
  C322     1.0000 0.15650  0.65650  0.50000  Biso   1.000  C 
  C323     1.0000 0.14470  0.70580  0.50000  Biso   1.000  C 
  C324     1.0000 0.20580  0.64470  0.50000  Biso   1.000  C 
  C325     1.0000 0.17950  0.74200  0.50000  Biso   1.000  C 
  H305     1.0000 0.11140  0.71490  0.50000  Biso   1.000  H 
  C326     1.0000 0.24200  0.67950  0.50000  Biso   1.000  C 
  H306     1.0000 0.21490  0.61140  0.50000  Biso   1.000  H 
  C327     1.0000 0.23070  0.73070  0.50000  Biso   1.000  C 
  C328     1.0000 0.26930  0.76930  0.50000  Biso   1.000  C 
  H307     1.0000 0.16950  0.77510  0.50000  Biso   1.000  H 
  C329     1.0000 0.25800  0.82050  0.50000  Biso   1.000  C 
  H308     1.0000 0.27510  0.66950  0.50000  Biso   1.000  H 
  C330     1.0000 0.32050  0.75800  0.50000  Biso   1.000  C 
  C331     1.0000 0.29420  0.85530  0.50000  Biso   1.000  C 
  N17      1.0000 0.20783  0.83928  0.47622  Biso   1.000  N 
  C332     1.0000 0.35530  0.79420  0.50000  Biso   1.000  C 
  H309     1.0000 0.33050  0.72490  0.50000  Biso   1.000  H 
  C333     1.0000 0.34350  0.84350  0.50000  Biso   1.000  C 
  C334     1.0000 0.38280  0.88280  0.50000  Biso   1.000  C 
  H310     1.0000 0.28510  0.88860  0.50000  Biso   1.000  H 
  H311     1.0000 0.38860  0.78510  0.50000  Biso   1.000  H 
  O99      1.0000 0.36740  0.92810  0.50000  Biso   1.000  O 
  O100     1.0000 0.42810  0.86740  0.50000  Biso   1.000  O 
  H312     1.0000 0.19620  0.87246  0.49299  Biso   1.000  H 
  C335     1.0000 0.20169  0.83910  0.42121  Biso   1.000  C 
  C336     1.0000 0.18499  0.78910  0.40214  Biso   1.000  C 
  H313     1.0000 0.21263  0.76073  0.41111  Biso   1.000  H 
  C337     1.0000 0.18038  0.78708  0.34592  Biso   1.000  C 
  H314     1.0000 0.14884  0.77823  0.41768  Biso   1.000  H 
  C338     1.0000 0.22317  0.80638  0.31207  Biso   1.000  C 
  H315     1.0000 0.14843  0.81118  0.33617  Biso   1.000  H 
  H316     1.0000 0.17112  0.74829  0.33549  Biso   1.000  H 
  C339     1.0000 0.24863  0.85149  0.39328  Biso   1.000  C 
  C340     1.0000 0.24375  0.85438  0.33603  Biso   1.000  C 
  H317     1.0000 0.26399  0.88746  0.40818  Biso   1.000  H 
  H318     1.0000 0.17572  0.86759  0.41131  Biso   1.000  H 
  H319     1.0000 0.28108  0.86327  0.32043  Biso   1.000  H 
  H320     1.0000 0.21785  0.88412  0.32490  Biso   1.000  H 
  H321     1.0000 0.20555  0.81643  0.27554  Biso   1.000  H 
  H322     1.0000 0.25177  0.77721  0.30579  Biso   1.000  H 
  H323     1.0000 0.27783  0.82254  0.39956  Biso   1.000  H 
  O101     1.0000 0.07190  0.36740  0.50000  Biso   1.000  O 
  C341     1.0000 0.11720  0.38280  0.50000  Biso   1.000  C 
  O102     1.0000 0.13260  0.42810  0.50000  Biso   1.000  O 
  C342     1.0000 0.15650  0.34350  0.50000  Biso   1.000  C 
  C343     1.0000 0.14470  0.29420  0.50000  Biso   1.000  C 
  C344     1.0000 0.20580  0.35530  0.50000  Biso   1.000  C 
  C345     1.0000 0.17950  0.25800  0.50000  Biso   1.000  C 
  H324     1.0000 0.11140  0.28510  0.50000  Biso   1.000  H 
  C346     1.0000 0.24200  0.32050  0.50000  Biso   1.000  C 
  H325     1.0000 0.21490  0.38860  0.50000  Biso   1.000  H 
  C347     1.0000 0.23070  0.26930  0.50000  Biso   1.000  C 
  C348     1.0000 0.26930  0.23070  0.50000  Biso   1.000  C 
  H326     1.0000 0.16950  0.22490  0.50000  Biso   1.000  H 
  C349     1.0000 0.25800  0.17950  0.50000  Biso   1.000  C 
  H327     1.0000 0.27510  0.33050  0.50000  Biso   1.000  H 
  C350     1.0000 0.32050  0.24200  0.50000  Biso   1.000  C 
  C351     1.0000 0.29420  0.14470  0.50000  Biso   1.000  C 
  N18      1.0000 0.20783  0.16072  0.52378  Biso   1.000  N 
  C352     1.0000 0.35530  0.20580  0.50000  Biso   1.000  C 
  H328     1.0000 0.33050  0.27510  0.50000  Biso   1.000  H 
  C353     1.0000 0.34350  0.15650  0.50000  Biso   1.000  C 
  C354     1.0000 0.38280  0.11720  0.50000  Biso   1.000  C 
  H329     1.0000 0.28510  0.11140  0.50000  Biso   1.000  H 
  H330     1.0000 0.38860  0.21490  0.50000  Biso   1.000  H 
  O103     1.0000 0.36740  0.07190  0.50000  Biso   1.000  O 
  O104     1.0000 0.42810  0.13260  0.50000  Biso   1.000  O 
  H331     1.0000 0.19620  0.12754  0.50701  Biso   1.000  H 
  C355     1.0000 0.20169  0.16090  0.57879  Biso   1.000  C 
  C356     1.0000 0.18499  0.21091  0.59786  Biso   1.000  C 
  H332     1.0000 0.21263  0.23927  0.58889  Biso   1.000  H 
  C357     1.0000 0.18038  0.21292  0.65407  Biso   1.000  C 
  H333     1.0000 0.14884  0.22177  0.58232  Biso   1.000  H 
  C358     1.0000 0.22317  0.19362  0.68793  Biso   1.000  C 
  H334     1.0000 0.14843  0.18882  0.66383  Biso   1.000  H 
  H335     1.0000 0.17112  0.25171  0.66451  Biso   1.000  H 
  C359     1.0000 0.24863  0.14851  0.60672  Biso   1.000  C 
  C360     1.0000 0.24375  0.14562  0.66397  Biso   1.000  C 
  H336     1.0000 0.26399  0.11254  0.59182  Biso   1.000  H 
  H337     1.0000 0.17572  0.13241  0.58869  Biso   1.000  H 
  H338     1.0000 0.28108  0.13673  0.67957  Biso   1.000  H 
  H339     1.0000 0.21785  0.11588  0.67510  Biso   1.000  H 
  H340     1.0000 0.20555  0.18357  0.72446  Biso   1.000  H 
  H341     1.0000 0.25177  0.22279  0.69421  Biso   1.000  H 
  H342     1.0000 0.27783  0.17746  0.60044  Biso   1.000  H 
  O105     1.0000 0.92810  0.36740  0.50000  Biso   1.000  O 
  C361     1.0000 0.88280  0.38280  0.50000  Biso   1.000  C 
  O106     1.0000 0.86740  0.42810  0.50000  Biso   1.000  O 
  C362     1.0000 0.84350  0.34350  0.50000  Biso   1.000  C 
  C363     1.0000 0.85530  0.29420  0.50000  Biso   1.000  C 
  C364     1.0000 0.79420  0.35530  0.50000  Biso   1.000  C 
  C365     1.0000 0.82050  0.25800  0.50000  Biso   1.000  C 
  H343     1.0000 0.88860  0.28510  0.50000  Biso   1.000  H 
  C366     1.0000 0.75800  0.32050  0.50000  Biso   1.000  C 
  H344     1.0000 0.78510  0.38860  0.50000  Biso   1.000  H 
  C367     1.0000 0.76930  0.26930  0.50000  Biso   1.000  C 
  C368     1.0000 0.73070  0.23070  0.50000  Biso   1.000  C 
  H345     1.0000 0.83050  0.22490  0.50000  Biso   1.000  H 
  C369     1.0000 0.74200  0.17950  0.50000  Biso   1.000  C 
  H346     1.0000 0.72490  0.33050  0.50000  Biso   1.000  H 
  C370     1.0000 0.67950  0.24200  0.50000  Biso   1.000  C 
  C371     1.0000 0.70580  0.14470  0.50000  Biso   1.000  C 
  N19      1.0000 0.79217  0.16072  0.47622  Biso   1.000  N 
  C372     1.0000 0.64470  0.20580  0.50000  Biso   1.000  C 
  H347     1.0000 0.66950  0.27510  0.50000  Biso   1.000  H 
  C373     1.0000 0.65650  0.15650  0.50000  Biso   1.000  C 
  C374     1.0000 0.61720  0.11720  0.50000  Biso   1.000  C 
  H348     1.0000 0.71490  0.11140  0.50000  Biso   1.000  H 
  H349     1.0000 0.61140  0.21490  0.50000  Biso   1.000  H 
  O107     1.0000 0.63260  0.07190  0.50000  Biso   1.000  O 
  O108     1.0000 0.57190  0.13260  0.50000  Biso   1.000  O 
  H350     1.0000 0.80380  0.12754  0.49299  Biso   1.000  H 
  C375     1.0000 0.79831  0.16090  0.42121  Biso   1.000  C 
  C376     1.0000 0.81501  0.21091  0.40214  Biso   1.000  C 
  H351     1.0000 0.78737  0.23927  0.41111  Biso   1.000  H 
  C377     1.0000 0.81962  0.21292  0.34592  Biso   1.000  C 
  H352     1.0000 0.85116  0.22177  0.41768  Biso   1.000  H 
  C378     1.0000 0.77683  0.19362  0.31207  Biso   1.000  C 
  H353     1.0000 0.85157  0.18882  0.33617  Biso   1.000  H 
  H354     1.0000 0.82887  0.25171  0.33549  Biso   1.000  H 
  C379     1.0000 0.75137  0.14851  0.39328  Biso   1.000  C 
  C380     1.0000 0.75625  0.14562  0.33603  Biso   1.000  C 
  H355     1.0000 0.73601  0.11254  0.40818  Biso   1.000  H 
  H356     1.0000 0.82428  0.13241  0.41131  Biso   1.000  H 
  H357     1.0000 0.71892  0.13673  0.32043  Biso   1.000  H 
  H358     1.0000 0.78215  0.11588  0.32490  Biso   1.000  H 
  H359     1.0000 0.79445  0.18357  0.27554  Biso   1.000  H 
  H360     1.0000 0.74823  0.22279  0.30579  Biso   1.000  H 
  H361     1.0000 0.72217  0.17746  0.39956  Biso   1.000  H 
  O109     1.0000 0.92810  0.63260  0.50000  Biso   1.000  O 
  C381     1.0000 0.88280  0.61720  0.50000  Biso   1.000  C 
  O110     1.0000 0.86740  0.57190  0.50000  Biso   1.000  O 
  C382     1.0000 0.84350  0.65650  0.50000  Biso   1.000  C 
  C383     1.0000 0.85530  0.70580  0.50000  Biso   1.000  C 
  C384     1.0000 0.79420  0.64470  0.50000  Biso   1.000  C 
  C385     1.0000 0.82050  0.74200  0.50000  Biso   1.000  C 
  H362     1.0000 0.88860  0.71490  0.50000  Biso   1.000  H 
  C386     1.0000 0.75800  0.67950  0.50000  Biso   1.000  C 
  H363     1.0000 0.78510  0.61140  0.50000  Biso   1.000  H 
  C387     1.0000 0.76930  0.73070  0.50000  Biso   1.000  C 
  C388     1.0000 0.73070  0.76930  0.50000  Biso   1.000  C 
  H364     1.0000 0.83050  0.77510  0.50000  Biso   1.000  H 
  C389     1.0000 0.74200  0.82050  0.50000  Biso   1.000  C 
  H365     1.0000 0.72490  0.66950  0.50000  Biso   1.000  H 
  C390     1.0000 0.67950  0.75800  0.50000  Biso   1.000  C 
  C391     1.0000 0.70580  0.85530  0.50000  Biso   1.000  C 
  N20      1.0000 0.79217  0.83928  0.52378  Biso   1.000  N 
  C392     1.0000 0.64470  0.79420  0.50000  Biso   1.000  C 
  H366     1.0000 0.66950  0.72490  0.50000  Biso   1.000  H 
  C393     1.0000 0.65650  0.84350  0.50000  Biso   1.000  C 
  C394     1.0000 0.61720  0.88280  0.50000  Biso   1.000  C 
  H367     1.0000 0.71490  0.88860  0.50000  Biso   1.000  H 
  H368     1.0000 0.61140  0.78510  0.50000  Biso   1.000  H 
  O111     1.0000 0.63260  0.92810  0.50000  Biso   1.000  O 
  O112     1.0000 0.57190  0.86740  0.50000  Biso   1.000  O 
  H369     1.0000 0.80380  0.87246  0.50701  Biso   1.000  H 
  C395     1.0000 0.79831  0.83910  0.57879  Biso   1.000  C 
  C396     1.0000 0.81501  0.78910  0.59786  Biso   1.000  C 
  H370     1.0000 0.78737  0.76073  0.58889  Biso   1.000  H 
  C397     1.0000 0.81962  0.78708  0.65407  Biso   1.000  C 
  H371     1.0000 0.85116  0.77823  0.58232  Biso   1.000  H 
  C398     1.0000 0.77683  0.80638  0.68793  Biso   1.000  C 
  H372     1.0000 0.85157  0.81118  0.66383  Biso   1.000  H 
  H373     1.0000 0.82887  0.74829  0.66451  Biso   1.000  H 
  C399     1.0000 0.75137  0.85149  0.60672  Biso   1.000  C 
  C400     1.0000 0.75625  0.85438  0.66397  Biso   1.000  C 
  H374     1.0000 0.73601  0.88746  0.59182  Biso   1.000  H 
  H375     1.0000 0.82428  0.86759  0.58869  Biso   1.000  H 
  H376     1.0000 0.71892  0.86327  0.67957  Biso   1.000  H 
  H377     1.0000 0.78215  0.88412  0.67510  Biso   1.000  H 
  H378     1.0000 0.79445  0.81643  0.72446  Biso   1.000  H 
  H379     1.0000 0.74823  0.77721  0.69421  Biso   1.000  H 
  H380     1.0000 0.72217  0.82254  0.60044  Biso   1.000  H 
  O113     1.0000 0.50000  0.07190  0.63260  Biso   1.000  O 
  C401     1.0000 0.50000  0.11720  0.61720  Biso   1.000  C 
  O114     1.0000 0.50000  0.13260  0.57190  Biso   1.000  O 
  C402     1.0000 0.50000  0.15650  0.65650  Biso   1.000  C 
  C403     1.0000 0.50000  0.14470  0.70580  Biso   1.000  C 
  C404     1.0000 0.50000  0.20580  0.64470  Biso   1.000  C 
  C405     1.0000 0.50000  0.17950  0.74200  Biso   1.000  C 
  H381     1.0000 0.50000  0.11140  0.71490  Biso   1.000  H 
  C406     1.0000 0.50000  0.24200  0.67950  Biso   1.000  C 
  H382     1.0000 0.50000  0.21490  0.61140  Biso   1.000  H 
  C407     1.0000 0.50000  0.23070  0.73070  Biso   1.000  C 
  C408     1.0000 0.50000  0.26930  0.76930  Biso   1.000  C 
  H383     1.0000 0.50000  0.16950  0.77510  Biso   1.000  H 
  C409     1.0000 0.50000  0.25800  0.82050  Biso   1.000  C 
  H384     1.0000 0.50000  0.27510  0.66950  Biso   1.000  H 
  C410     1.0000 0.50000  0.32050  0.75800  Biso   1.000  C 
  C411     1.0000 0.50000  0.29420  0.85530  Biso   1.000  C 
  N21      1.0000 0.47017  0.21165  0.83617  Biso   1.000  N 
  C412     1.0000 0.50000  0.35530  0.79420  Biso   1.000  C 
  H385     1.0000 0.50000  0.33050  0.72490  Biso   1.000  H 
  C413     1.0000 0.50000  0.34350  0.84350  Biso   1.000  C 
  C414     1.0000 0.50000  0.38280  0.88280  Biso   1.000  C 
  H386     1.0000 0.50000  0.28510  0.88860  Biso   1.000  H 
  H387     1.0000 0.50000  0.38860  0.78510  Biso   1.000  H 
  O115     1.0000 0.50000  0.36740  0.92810  Biso   1.000  O 
  O116     1.0000 0.50000  0.42810  0.86740  Biso   1.000  O 
  H388     1.0000 0.47397  0.20722  0.87468  Biso   1.000  H 
  C415     1.0000 0.41511  0.21550  0.82491  Biso   1.000  C 
  C416     1.0000 0.39471  0.26881  0.81522  Biso   1.000  C 
  H389     1.0000 0.39892  0.29372  0.84809  Biso   1.000  H 
  C417     1.0000 0.33929  0.26745  0.80096  Biso   1.000  C 
  H390     1.0000 0.41165  0.28768  0.78319  Biso   1.000  H 
  C418     1.0000 0.30525  0.23694  0.83564  Biso   1.000  C 
  H391     1.0000 0.33395  0.25001  0.76310  Biso   1.000  H 
  H392     1.0000 0.32541  0.30623  0.79906  Biso   1.000  H 
  C419     1.0000 0.38244  0.19659  0.86926  Biso   1.000  C 
  C420     1.0000 0.32779  0.18948  0.85640  Biso   1.000  C 
  H393     1.0000 0.39619  0.15916  0.87828  Biso   1.000  H 
  H394     1.0000 0.40697  0.19113  0.79120  Biso   1.000  H 
  H395     1.0000 0.30708  0.18137  0.89214  Biso   1.000  H 
  H396     1.0000 0.32252  0.15781  0.83113  Biso   1.000  H 
  H397     1.0000 0.26798  0.22986  0.81801  Biso   1.000  H 
  H398     1.0000 0.29954  0.26063  0.86840  Biso   1.000  H 
  H399     1.0000 0.38677  0.22139  0.90279  Biso   1.000  H 
  O117     1.0000 0.50000  0.07190  0.36740  Biso   1.000  O 
  C421     1.0000 0.50000  0.11720  0.38280  Biso   1.000  C 
  O118     1.0000 0.50000  0.13260  0.42810  Biso   1.000  O 
  C422     1.0000 0.50000  0.15650  0.34350  Biso   1.000  C 
  C423     1.0000 0.50000  0.14470  0.29420  Biso   1.000  C 
  C424     1.0000 0.50000  0.20580  0.35530  Biso   1.000  C 
  C425     1.0000 0.50000  0.17950  0.25800  Biso   1.000  C 
  H400     1.0000 0.50000  0.11140  0.28510  Biso   1.000  H 
  C426     1.0000 0.50000  0.24200  0.32050  Biso   1.000  C 
  H401     1.0000 0.50000  0.21490  0.38860  Biso   1.000  H 
  C427     1.0000 0.50000  0.23070  0.26930  Biso   1.000  C 
  C428     1.0000 0.50000  0.26930  0.23070  Biso   1.000  C 
  H402     1.0000 0.50000  0.16950  0.22490  Biso   1.000  H 
  C429     1.0000 0.50000  0.25800  0.17950  Biso   1.000  C 
  H403     1.0000 0.50000  0.27510  0.33050  Biso   1.000  H 
  C430     1.0000 0.50000  0.32050  0.24200  Biso   1.000  C 
  C431     1.0000 0.50000  0.29420  0.14470  Biso   1.000  C 
  N22      1.0000 0.52983  0.21165  0.16383  Biso   1.000  N 
  C432     1.0000 0.50000  0.35530  0.20580  Biso   1.000  C 
  H404     1.0000 0.50000  0.33050  0.27510  Biso   1.000  H 
  C433     1.0000 0.50000  0.34350  0.15650  Biso   1.000  C 
  C434     1.0000 0.50000  0.38280  0.11720  Biso   1.000  C 
  H405     1.0000 0.50000  0.28510  0.11140  Biso   1.000  H 
  H406     1.0000 0.50000  0.38860  0.21490  Biso   1.000  H 
  O119     1.0000 0.50000  0.36740  0.07190  Biso   1.000  O 
  O120     1.0000 0.50000  0.42810  0.13260  Biso   1.000  O 
  H407     1.0000 0.52603  0.20722  0.12532  Biso   1.000  H 
  C435     1.0000 0.58489  0.21550  0.17509  Biso   1.000  C 
  C436     1.0000 0.60529  0.26881  0.18478  Biso   1.000  C 
  H408     1.0000 0.60108  0.29372  0.15191  Biso   1.000  H 
  C437     1.0000 0.66071  0.26745  0.19904  Biso   1.000  C 
  H409     1.0000 0.58835  0.28768  0.21681  Biso   1.000  H 
  C438     1.0000 0.69475  0.23694  0.16436  Biso   1.000  C 
  H410     1.0000 0.66605  0.25001  0.23690  Biso   1.000  H 
  H411     1.0000 0.67459  0.30623  0.20094  Biso   1.000  H 
  C439     1.0000 0.61756  0.19659  0.13074  Biso   1.000  C 
  C440     1.0000 0.67221  0.18948  0.14360  Biso   1.000  C 
  H412     1.0000 0.60381  0.15916  0.12172  Biso   1.000  H 
  H413     1.0000 0.59303  0.19113  0.20880  Biso   1.000  H 
  H414     1.0000 0.69292  0.18137  0.10786  Biso   1.000  H 
  H415     1.0000 0.67748  0.15781  0.16887  Biso   1.000  H 
  H416     1.0000 0.73202  0.22986  0.18199  Biso   1.000  H 
  H417     1.0000 0.70046  0.26063  0.13159  Biso   1.000  H 
  H418     1.0000 0.61323  0.22139  0.09721  Biso   1.000  H 
  O121     1.0000 0.50000  0.92810  0.36740  Biso   1.000  O 
  C441     1.0000 0.50000  0.88280  0.38280  Biso   1.000  C 
  O122     1.0000 0.50000  0.86740  0.42810  Biso   1.000  O 
  C442     1.0000 0.50000  0.84350  0.34350  Biso   1.000  C 
  C443     1.0000 0.50000  0.85530  0.29420  Biso   1.000  C 
  C444     1.0000 0.50000  0.79420  0.35530  Biso   1.000  C 
  C445     1.0000 0.50000  0.82050  0.25800  Biso   1.000  C 
  H419     1.0000 0.50000  0.88860  0.28510  Biso   1.000  H 
  C446     1.0000 0.50000  0.75800  0.32050  Biso   1.000  C 
  H420     1.0000 0.50000  0.78510  0.38860  Biso   1.000  H 
  C447     1.0000 0.50000  0.76930  0.26930  Biso   1.000  C 
  C448     1.0000 0.50000  0.73070  0.23070  Biso   1.000  C 
  H421     1.0000 0.50000  0.83050  0.22490  Biso   1.000  H 
  C449     1.0000 0.50000  0.74200  0.17950  Biso   1.000  C 
  H422     1.0000 0.50000  0.72490  0.33050  Biso   1.000  H 
  C450     1.0000 0.50000  0.67950  0.24200  Biso   1.000  C 
  C451     1.0000 0.50000  0.70580  0.14470  Biso   1.000  C 
  N23      1.0000 0.47017  0.78835  0.16383  Biso   1.000  N 
  C452     1.0000 0.50000  0.64470  0.20580  Biso   1.000  C 
  H423     1.0000 0.50000  0.66950  0.27510  Biso   1.000  H 
  C453     1.0000 0.50000  0.65650  0.15650  Biso   1.000  C 
  C454     1.0000 0.50000  0.61720  0.11720  Biso   1.000  C 
  H424     1.0000 0.50000  0.71490  0.11140  Biso   1.000  H 
  H425     1.0000 0.50000  0.61140  0.21490  Biso   1.000  H 
  O123     1.0000 0.50000  0.63260  0.07190  Biso   1.000  O 
  O124     1.0000 0.50000  0.57190  0.13260  Biso   1.000  O 
  H426     1.0000 0.47397  0.79278  0.12532  Biso   1.000  H 
  C455     1.0000 0.41511  0.78450  0.17509  Biso   1.000  C 
  C456     1.0000 0.39471  0.73119  0.18478  Biso   1.000  C 
  H427     1.0000 0.39892  0.70628  0.15191  Biso   1.000  H 
  C457     1.0000 0.33929  0.73255  0.19904  Biso   1.000  C 
  H428     1.0000 0.41165  0.71231  0.21681  Biso   1.000  H 
  C458     1.0000 0.30525  0.76306  0.16436  Biso   1.000  C 
  H429     1.0000 0.33395  0.74999  0.23690  Biso   1.000  H 
  H430     1.0000 0.32541  0.69377  0.20094  Biso   1.000  H 
  C459     1.0000 0.38244  0.80341  0.13074  Biso   1.000  C 
  C460     1.0000 0.32779  0.81052  0.14360  Biso   1.000  C 
  H431     1.0000 0.39619  0.84084  0.12172  Biso   1.000  H 
  H432     1.0000 0.40697  0.80887  0.20880  Biso   1.000  H 
  H433     1.0000 0.30708  0.81863  0.10786  Biso   1.000  H 
  H434     1.0000 0.32252  0.84218  0.16887  Biso   1.000  H 
  H435     1.0000 0.26798  0.77014  0.18199  Biso   1.000  H 
  H436     1.0000 0.29954  0.73937  0.13159  Biso   1.000  H 
  H437     1.0000 0.38677  0.77861  0.09721  Biso   1.000  H 
  O125     1.0000 0.50000  0.92810  0.63260  Biso   1.000  O 
  C461     1.0000 0.50000  0.88280  0.61720  Biso   1.000  C 
  O126     1.0000 0.50000  0.86740  0.57190  Biso   1.000  O 
  C462     1.0000 0.50000  0.84350  0.65650  Biso   1.000  C 
  C463     1.0000 0.50000  0.85530  0.70580  Biso   1.000  C 
  C464     1.0000 0.50000  0.79420  0.64470  Biso   1.000  C 
  C465     1.0000 0.50000  0.82050  0.74200  Biso   1.000  C 
  H438     1.0000 0.50000  0.88860  0.71490  Biso   1.000  H 
  C466     1.0000 0.50000  0.75800  0.67950  Biso   1.000  C 
  H439     1.0000 0.50000  0.78510  0.61140  Biso   1.000  H 
  C467     1.0000 0.50000  0.76930  0.73070  Biso   1.000  C 
  C468     1.0000 0.50000  0.73070  0.76930  Biso   1.000  C 
  H440     1.0000 0.50000  0.83050  0.77510  Biso   1.000  H 
  C469     1.0000 0.50000  0.74200  0.82050  Biso   1.000  C 
  H441     1.0000 0.50000  0.72490  0.66950  Biso   1.000  H 
  C470     1.0000 0.50000  0.67950  0.75800  Biso   1.000  C 
  C471     1.0000 0.50000  0.70580  0.85530  Biso   1.000  C 
  N24      1.0000 0.52983  0.78835  0.83617  Biso   1.000  N 
  C472     1.0000 0.50000  0.64470  0.79420  Biso   1.000  C 
  H442     1.0000 0.50000  0.66950  0.72490  Biso   1.000  H 
  C473     1.0000 0.50000  0.65650  0.84350  Biso   1.000  C 
  C474     1.0000 0.50000  0.61720  0.88280  Biso   1.000  C 
  H443     1.0000 0.50000  0.71490  0.88860  Biso   1.000  H 
  H444     1.0000 0.50000  0.61140  0.78510  Biso   1.000  H 
  O127     1.0000 0.50000  0.63260  0.92810  Biso   1.000  O 
  O128     1.0000 0.50000  0.57190  0.86740  Biso   1.000  O 
  H445     1.0000 0.52603  0.79278  0.87468  Biso   1.000  H 
  C475     1.0000 0.58489  0.78450  0.82491  Biso   1.000  C 
  C476     1.0000 0.60529  0.73119  0.81522  Biso   1.000  C 
  H446     1.0000 0.60108  0.70628  0.84809  Biso   1.000  H 
  C477     1.0000 0.66071  0.73255  0.80096  Biso   1.000  C 
  H447     1.0000 0.58835  0.71231  0.78319  Biso   1.000  H 
  C478     1.0000 0.69475  0.76306  0.83564  Biso   1.000  C 
  H448     1.0000 0.66605  0.74999  0.76310  Biso   1.000  H 
  H449     1.0000 0.67459  0.69377  0.79906  Biso   1.000  H 
  C479     1.0000 0.61756  0.80341  0.86926  Biso   1.000  C 
  C480     1.0000 0.67221  0.81052  0.85640  Biso   1.000  C 
  H450     1.0000 0.60381  0.84084  0.87828  Biso   1.000  H 
  H451     1.0000 0.59303  0.80887  0.79120  Biso   1.000  H 
  H452     1.0000 0.69292  0.81863  0.89214  Biso   1.000  H 
  H453     1.0000 0.67748  0.84218  0.83113  Biso   1.000  H 
  H454     1.0000 0.73202  0.77014  0.81801  Biso   1.000  H 
  H455     1.0000 0.70046  0.73937  0.86840  Biso   1.000  H 
  H456     1.0000 0.61323  0.77861  0.90279  Biso   1.000  H 
