data_image0
_cell_length_a       26.896
_cell_length_b       26.896
_cell_length_c       26.896
_cell_angle_alpha    90
_cell_angle_beta     90
_cell_angle_gamma    90

_symmetry_space_group_name_H-M    "P 1"
_symmetry_int_tables_number       1

loop_
  _symmetry_equiv_pos_as_xyz
  'x, y, z'

loop_
  _atom_site_label
  _atom_site_occupancy
  _atom_site_fract_x
  _atom_site_fract_y
  _atom_site_fract_z
  _atom_site_thermal_displace_type
  _atom_site_B_iso_or_equiv
  _atom_site_type_symbol
  Zr1      1.0000 0.09204  0.00000  0.00000  Biso   1.000  Zr
  Zr2      1.0000 0.90796  0.00000  0.00000  Biso   1.000  Zr
  Zr3      1.0000 0.00000  0.09204  0.00000  Biso   1.000  Zr
  Zr4      1.0000 0.00000  0.90796  0.00000  Biso   1.000  Zr
  Zr5      1.0000 0.00000  0.00000  0.09204  Biso   1.000  Zr
  Zr6      1.0000 0.00000  0.00000  0.90796  Biso   1.000  Zr
  Zr7      1.0000 0.09204  0.50000  0.50000  Biso   1.000  Zr
  Zr8      1.0000 0.90796  0.50000  0.50000  Biso   1.000  Zr
  Zr9      1.0000 0.00000  0.59204  0.50000  Biso   1.000  Zr
  Zr10     1.0000 0.00000  0.40796  0.50000  Biso   1.000  Zr
  Zr11     1.0000 0.00000  0.50000  0.59204  Biso   1.000  Zr
  Zr12     1.0000 0.00000  0.50000  0.40796  Biso   1.000  Zr
  Zr13     1.0000 0.59204  0.00000  0.50000  Biso   1.000  Zr
  Zr14     1.0000 0.40796  0.00000  0.50000  Biso   1.000  Zr
  Zr15     1.0000 0.50000  0.09204  0.50000  Biso   1.000  Zr
  Zr16     1.0000 0.50000  0.90796  0.50000  Biso   1.000  Zr
  Zr17     1.0000 0.50000  0.00000  0.59204  Biso   1.000  Zr
  Zr18     1.0000 0.50000  0.00000  0.40796  Biso   1.000  Zr
  Zr19     1.0000 0.59204  0.50000  0.00000  Biso   1.000  Zr
  Zr20     1.0000 0.40796  0.50000  0.00000  Biso   1.000  Zr
  Zr21     1.0000 0.50000  0.59204  0.00000  Biso   1.000  Zr
  Zr22     1.0000 0.50000  0.40796  0.00000  Biso   1.000  Zr
  Zr23     1.0000 0.50000  0.50000  0.09204  Biso   1.000  Zr
  Zr24     1.0000 0.50000  0.50000  0.90796  Biso   1.000  Zr
  O1       1.0000 0.04540  0.04540  0.04540  Biso   1.000  O 
  O2       1.0000 0.95460  0.95460  0.04540  Biso   1.000  O 
  O3       1.0000 0.95460  0.04540  0.95460  Biso   1.000  O 
  O4       1.0000 0.04540  0.95460  0.95460  Biso   1.000  O 
  O5       1.0000 0.04540  0.04540  0.95460  Biso   1.000  O 
  O6       1.0000 0.95460  0.95460  0.95460  Biso   1.000  O 
  O7       1.0000 0.04540  0.95460  0.04540  Biso   1.000  O 
  O8       1.0000 0.95460  0.04540  0.04540  Biso   1.000  O 
  O9       1.0000 0.04540  0.54540  0.54540  Biso   1.000  O 
  O10      1.0000 0.95460  0.45460  0.54540  Biso   1.000  O 
  O11      1.0000 0.95460  0.54540  0.45460  Biso   1.000  O 
  O12      1.0000 0.04540  0.45460  0.45460  Biso   1.000  O 
  O13      1.0000 0.04540  0.54540  0.45460  Biso   1.000  O 
  O14      1.0000 0.95460  0.45460  0.45460  Biso   1.000  O 
  O15      1.0000 0.04540  0.45460  0.54540  Biso   1.000  O 
  O16      1.0000 0.95460  0.54540  0.54540  Biso   1.000  O 
  O17      1.0000 0.54540  0.04540  0.54540  Biso   1.000  O 
  O18      1.0000 0.45460  0.95460  0.54540  Biso   1.000  O 
  O19      1.0000 0.45460  0.04540  0.45460  Biso   1.000  O 
  O20      1.0000 0.54540  0.95460  0.45460  Biso   1.000  O 
  O21      1.0000 0.54540  0.04540  0.45460  Biso   1.000  O 
  O22      1.0000 0.45460  0.95460  0.45460  Biso   1.000  O 
  O23      1.0000 0.54540  0.95460  0.54540  Biso   1.000  O 
  O24      1.0000 0.45460  0.04540  0.54540  Biso   1.000  O 
  O25      1.0000 0.54540  0.54540  0.04540  Biso   1.000  O 
  O26      1.0000 0.45460  0.45460  0.04540  Biso   1.000  O 
  O27      1.0000 0.45460  0.54540  0.95460  Biso   1.000  O 
  O28      1.0000 0.54540  0.45460  0.95460  Biso   1.000  O 
  O29      1.0000 0.54540  0.54540  0.95460  Biso   1.000  O 
  O30      1.0000 0.45460  0.45460  0.95460  Biso   1.000  O 
  O31      1.0000 0.54540  0.45460  0.04540  Biso   1.000  O 
  O32      1.0000 0.45460  0.54540  0.04540  Biso   1.000  O 
  O33      1.0000 0.13260  0.00000  0.07190  Biso   1.000  O 
  C1       1.0000 0.11720  0.00000  0.11720  Biso   1.000  C 
  O34      1.0000 0.07190  0.00000  0.13260  Biso   1.000  O 
  C2       1.0000 0.15650  0.00000  0.15650  Biso   1.000  C 
  C3       1.0000 0.20580  0.00000  0.14470  Biso   1.000  C 
  C4       1.0000 0.14470  0.00000  0.20580  Biso   1.000  C 
  C5       1.0000 0.24200  0.00000  0.17950  Biso   1.000  C 
  H1       1.0000 0.21490  0.00000  0.11140  Biso   1.000  H 
  C6       1.0000 0.17950  0.00000  0.24200  Biso   1.000  C 
  H2       1.0000 0.11140  0.00000  0.21490  Biso   1.000  H 
  C7       1.0000 0.23070  0.00000  0.23070  Biso   1.000  C 
  C8       1.0000 0.26930  0.00000  0.26930  Biso   1.000  C 
  H3       1.0000 0.27510  0.00000  0.16950  Biso   1.000  H 
  C9       1.0000 0.32050  0.00000  0.25800  Biso   1.000  C 
  H4       1.0000 0.16950  0.00000  0.27510  Biso   1.000  H 
  C10      1.0000 0.25800  0.00000  0.32050  Biso   1.000  C 
  C11      1.0000 0.35530  0.00000  0.29420  Biso   1.000  C 
  N1       1.0000 0.33973  0.01848  0.20757  Biso   1.000  N 
  C12      1.0000 0.29420  0.00000  0.35530  Biso   1.000  C 
  H5       1.0000 0.22490  0.00000  0.33050  Biso   1.000  H 
  C13      1.0000 0.34350  0.00000  0.34350  Biso   1.000  C 
  C14      1.0000 0.38280  0.00000  0.38280  Biso   1.000  C 
  H6       1.0000 0.38860  0.00000  0.28510  Biso   1.000  H 
  H7       1.0000 0.28510  0.00000  0.38860  Biso   1.000  H 
  O35      1.0000 0.42810  0.00000  0.36740  Biso   1.000  O 
  O36      1.0000 0.36740  0.00000  0.42810  Biso   1.000  O 
  H8       1.0000 0.33553  0.05699  0.20756  Biso   1.000  H 
  C15      1.0000 0.39109  0.00555  0.19038  Biso   1.000  C 
  C16      1.0000 0.40090  0.03209  0.13980  Biso   1.000  C 
  C17      1.0000 0.39756  0.99660  0.09437  Biso   1.000  C 
  H9       1.0000 0.41045  0.01865  0.06044  Biso   1.000  H 
  C18      1.0000 0.34480  0.97549  0.08502  Biso   1.000  C 
  H10      1.0000 0.42564  0.96718  0.09964  Biso   1.000  H 
  H11      1.0000 0.39767  0.96473  0.18973  Biso   1.000  H 
  H12      1.0000 0.41799  0.02226  0.21828  Biso   1.000  H 
  H13      1.0000 0.44034  0.04428  0.14093  Biso   1.000  H 
  H14      1.0000 0.37715  0.06447  0.13357  Biso   1.000  H 
  H15      1.0000 0.33524  0.97304  0.04384  Biso   1.000  H 
  H16      1.0000 0.31551  0.99970  0.10109  Biso   1.000  H 
  C19      1.0000 0.33785  0.92496  0.10973  Biso   1.000  C 
  H17      1.0000 0.37412  0.91042  0.12460  Biso   1.000  H 
  H18      1.0000 0.32293  0.89802  0.08385  Biso   1.000  H 
  H19      1.0000 0.31140  0.92886  0.14169  Biso   1.000  H 
  O37      1.0000 0.86740  0.00000  0.07190  Biso   1.000  O 
  C20      1.0000 0.88280  0.00000  0.11720  Biso   1.000  C 
  O38      1.0000 0.92810  0.00000  0.13260  Biso   1.000  O 
  C21      1.0000 0.84350  0.00000  0.15650  Biso   1.000  C 
  C22      1.0000 0.79420  0.00000  0.14470  Biso   1.000  C 
  C23      1.0000 0.85530  0.00000  0.20580  Biso   1.000  C 
  C24      1.0000 0.75800  0.00000  0.17950  Biso   1.000  C 
  H20      1.0000 0.78510  0.00000  0.11140  Biso   1.000  H 
  C25      1.0000 0.82050  0.00000  0.24200  Biso   1.000  C 
  H21      1.0000 0.88860  0.00000  0.21490  Biso   1.000  H 
  C26      1.0000 0.76930  0.00000  0.23070  Biso   1.000  C 
  C27      1.0000 0.73070  0.00000  0.26930  Biso   1.000  C 
  H22      1.0000 0.72490  0.00000  0.16950  Biso   1.000  H 
  C28      1.0000 0.67950  0.00000  0.25800  Biso   1.000  C 
  H23      1.0000 0.83050  0.00000  0.27510  Biso   1.000  H 
  C29      1.0000 0.74200  0.00000  0.32050  Biso   1.000  C 
  C30      1.0000 0.64470  0.00000  0.29420  Biso   1.000  C 
  N2       1.0000 0.66027  0.98151  0.20757  Biso   1.000  N 
  C31      1.0000 0.70580  0.00000  0.35530  Biso   1.000  C 
  H24      1.0000 0.77510  0.00000  0.33050  Biso   1.000  H 
  C32      1.0000 0.65650  0.00000  0.34350  Biso   1.000  C 
  C33      1.0000 0.61720  0.00000  0.38280  Biso   1.000  C 
  H25      1.0000 0.61140  0.00000  0.28510  Biso   1.000  H 
  H26      1.0000 0.71490  0.00000  0.38860  Biso   1.000  H 
  O39      1.0000 0.57190  0.00000  0.36740  Biso   1.000  O 
  O40      1.0000 0.63260  0.00000  0.42810  Biso   1.000  O 
  H27      1.0000 0.66447  0.94300  0.20757  Biso   1.000  H 
  C34      1.0000 0.60892  0.99445  0.19038  Biso   1.000  C 
  C35      1.0000 0.59911  0.96791  0.13980  Biso   1.000  C 
  C36      1.0000 0.60242  0.00340  0.09437  Biso   1.000  C 
  H28      1.0000 0.58952  0.98134  0.06044  Biso   1.000  H 
  C37      1.0000 0.65517  0.02451  0.08500  Biso   1.000  C 
  H29      1.0000 0.57434  0.03281  0.09965  Biso   1.000  H 
  H30      1.0000 0.60235  0.03528  0.18972  Biso   1.000  H 
  H31      1.0000 0.58201  0.97775  0.21828  Biso   1.000  H 
  H32      1.0000 0.55967  0.95569  0.14094  Biso   1.000  H 
  H33      1.0000 0.62287  0.93554  0.13357  Biso   1.000  H 
  H34      1.0000 0.66473  0.02696  0.04382  Biso   1.000  H 
  H35      1.0000 0.68447  0.00030  0.10107  Biso   1.000  H 
  C38      1.0000 0.66213  0.07504  0.10971  Biso   1.000  C 
  H36      1.0000 0.62586  0.08957  0.12461  Biso   1.000  H 
  H37      1.0000 0.67702  0.10198  0.08381  Biso   1.000  H 
  H38      1.0000 0.68860  0.07115  0.14164  Biso   1.000  H 
  O41      1.0000 0.86740  0.00000  0.92810  Biso   1.000  O 
  C39      1.0000 0.88280  0.00000  0.88280  Biso   1.000  C 
  O42      1.0000 0.92810  0.00000  0.86740  Biso   1.000  O 
  C40      1.0000 0.84350  0.00000  0.84350  Biso   1.000  C 
  C41      1.0000 0.79420  0.00000  0.85530  Biso   1.000  C 
  C42      1.0000 0.85530  0.00000  0.79420  Biso   1.000  C 
  C43      1.0000 0.75800  0.00000  0.82050  Biso   1.000  C 
  H39      1.0000 0.78510  0.00000  0.88860  Biso   1.000  H 
  C44      1.0000 0.82050  0.00000  0.75800  Biso   1.000  C 
  H40      1.0000 0.88860  0.00000  0.78510  Biso   1.000  H 
  C45      1.0000 0.76930  0.00000  0.76930  Biso   1.000  C 
  C46      1.0000 0.73070  0.00000  0.73070  Biso   1.000  C 
  H41      1.0000 0.72490  0.00000  0.83050  Biso   1.000  H 
  C47      1.0000 0.67950  0.00000  0.74200  Biso   1.000  C 
  H42      1.0000 0.83050  0.00000  0.72490  Biso   1.000  H 
  C48      1.0000 0.74200  0.00000  0.67950  Biso   1.000  C 
  C49      1.0000 0.64470  0.00000  0.70580  Biso   1.000  C 
  N3       1.0000 0.66027  0.01849  0.79243  Biso   1.000  N 
  C50      1.0000 0.70580  0.00000  0.64470  Biso   1.000  C 
  H43      1.0000 0.77510  0.00000  0.66950  Biso   1.000  H 
  C51      1.0000 0.65650  0.00000  0.65650  Biso   1.000  C 
  C52      1.0000 0.61720  0.00000  0.61720  Biso   1.000  C 
  H44      1.0000 0.61140  0.00000  0.71490  Biso   1.000  H 
  H45      1.0000 0.71490  0.00000  0.61140  Biso   1.000  H 
  O43      1.0000 0.57190  0.00000  0.63260  Biso   1.000  O 
  O44      1.0000 0.63260  0.00000  0.57190  Biso   1.000  O 
  H46      1.0000 0.66447  0.05700  0.79243  Biso   1.000  H 
  C53      1.0000 0.60892  0.00555  0.80962  Biso   1.000  C 
  C54      1.0000 0.59911  0.03209  0.86020  Biso   1.000  C 
  C55      1.0000 0.60242  0.99660  0.90563  Biso   1.000  C 
  H47      1.0000 0.58952  0.01866  0.93956  Biso   1.000  H 
  C56      1.0000 0.65518  0.97549  0.91500  Biso   1.000  C 
  H48      1.0000 0.57434  0.96719  0.90035  Biso   1.000  H 
  H49      1.0000 0.60234  0.96473  0.81028  Biso   1.000  H 
  H50      1.0000 0.58201  0.02225  0.78172  Biso   1.000  H 
  H51      1.0000 0.55967  0.04430  0.85906  Biso   1.000  H 
  H52      1.0000 0.62286  0.06446  0.86643  Biso   1.000  H 
  H53      1.0000 0.66473  0.97304  0.95618  Biso   1.000  H 
  H54      1.0000 0.68448  0.99970  0.89893  Biso   1.000  H 
  C57      1.0000 0.66213  0.92496  0.89029  Biso   1.000  C 
  H55      1.0000 0.62586  0.91043  0.87539  Biso   1.000  H 
  H56      1.0000 0.67703  0.89802  0.91618  Biso   1.000  H 
  H57      1.0000 0.68860  0.92885  0.85835  Biso   1.000  H 
  O45      1.0000 0.13260  0.00000  0.92810  Biso   1.000  O 
  C58      1.0000 0.11720  0.00000  0.88280  Biso   1.000  C 
  O46      1.0000 0.07190  0.00000  0.86740  Biso   1.000  O 
  C59      1.0000 0.15650  0.00000  0.84350  Biso   1.000  C 
  C60      1.0000 0.20580  0.00000  0.85530  Biso   1.000  C 
  C61      1.0000 0.14470  0.00000  0.79420  Biso   1.000  C 
  C62      1.0000 0.24200  0.00000  0.82050  Biso   1.000  C 
  H58      1.0000 0.21490  0.00000  0.88860  Biso   1.000  H 
  C63      1.0000 0.17950  0.00000  0.75800  Biso   1.000  C 
  H59      1.0000 0.11140  0.00000  0.78510  Biso   1.000  H 
  C64      1.0000 0.23070  0.00000  0.76930  Biso   1.000  C 
  C65      1.0000 0.26930  0.00000  0.73070  Biso   1.000  C 
  H60      1.0000 0.27510  0.00000  0.83050  Biso   1.000  H 
  C66      1.0000 0.32050  0.00000  0.74200  Biso   1.000  C 
  H61      1.0000 0.16950  0.00000  0.72490  Biso   1.000  H 
  C67      1.0000 0.25800  0.00000  0.67950  Biso   1.000  C 
  C68      1.0000 0.35530  0.00000  0.70580  Biso   1.000  C 
  N4       1.0000 0.33973  0.98151  0.79243  Biso   1.000  N 
  C69      1.0000 0.29420  0.00000  0.64470  Biso   1.000  C 
  H62      1.0000 0.22490  0.00000  0.66950  Biso   1.000  H 
  C70      1.0000 0.34350  0.00000  0.65650  Biso   1.000  C 
  C71      1.0000 0.38280  0.00000  0.61720  Biso   1.000  C 
  H63      1.0000 0.38860  0.00000  0.71490  Biso   1.000  H 
  H64      1.0000 0.28510  0.00000  0.61140  Biso   1.000  H 
  O47      1.0000 0.42810  0.00000  0.63260  Biso   1.000  O 
  O48      1.0000 0.36740  0.00000  0.57190  Biso   1.000  O 
  H65      1.0000 0.33553  0.94301  0.79243  Biso   1.000  H 
  C72      1.0000 0.39109  0.99445  0.80962  Biso   1.000  C 
  C73      1.0000 0.40089  0.96791  0.86020  Biso   1.000  C 
  C74      1.0000 0.39756  0.00340  0.90563  Biso   1.000  C 
  H66      1.0000 0.41046  0.98135  0.93956  Biso   1.000  H 
  C75      1.0000 0.34481  0.02451  0.91499  Biso   1.000  C 
  H67      1.0000 0.42564  0.03281  0.90036  Biso   1.000  H 
  H68      1.0000 0.39766  0.03527  0.81028  Biso   1.000  H 
  H69      1.0000 0.41799  0.97774  0.78172  Biso   1.000  H 
  H70      1.0000 0.44034  0.95572  0.85907  Biso   1.000  H 
  H71      1.0000 0.37715  0.93553  0.86643  Biso   1.000  H 
  H72      1.0000 0.33525  0.02696  0.95616  Biso   1.000  H 
  H73      1.0000 0.31551  0.00030  0.89891  Biso   1.000  H 
  C76      1.0000 0.33785  0.07504  0.89027  Biso   1.000  C 
  H74      1.0000 0.37413  0.08958  0.87540  Biso   1.000  H 
  H75      1.0000 0.32294  0.10198  0.91616  Biso   1.000  H 
  H76      1.0000 0.31140  0.07115  0.85832  Biso   1.000  H 
  O49      1.0000 0.07190  0.13260  0.00000  Biso   1.000  O 
  C77      1.0000 0.11720  0.11720  0.00000  Biso   1.000  C 
  O50      1.0000 0.13260  0.07190  0.00000  Biso   1.000  O 
  C78      1.0000 0.15650  0.15650  0.00000  Biso   1.000  C 
  C79      1.0000 0.14470  0.20580  0.00000  Biso   1.000  C 
  C80      1.0000 0.20580  0.14470  0.00000  Biso   1.000  C 
  C81      1.0000 0.17950  0.24200  0.00000  Biso   1.000  C 
  H77      1.0000 0.11140  0.21490  0.00000  Biso   1.000  H 
  C82      1.0000 0.24200  0.17950  0.00000  Biso   1.000  C 
  H78      1.0000 0.21490  0.11140  0.00000  Biso   1.000  H 
  C83      1.0000 0.23070  0.23070  0.00000  Biso   1.000  C 
  C84      1.0000 0.26930  0.26930  0.00000  Biso   1.000  C 
  H79      1.0000 0.16950  0.27510  0.00000  Biso   1.000  H 
  C85      1.0000 0.25800  0.32050  0.00000  Biso   1.000  C 
  H80      1.0000 0.27510  0.16950  0.00000  Biso   1.000  H 
  C86      1.0000 0.32050  0.25800  0.00000  Biso   1.000  C 
  C87      1.0000 0.29420  0.35530  0.00000  Biso   1.000  C 
  N5       1.0000 0.20576  0.34143  0.99279  Biso   1.000  N 
  C88      1.0000 0.35530  0.29420  0.00000  Biso   1.000  C 
  H81      1.0000 0.33050  0.22490  0.00000  Biso   1.000  H 
  C89      1.0000 0.34350  0.34350  0.00000  Biso   1.000  C 
  C90      1.0000 0.38280  0.38280  0.00000  Biso   1.000  C 
  H82      1.0000 0.28510  0.38860  0.00000  Biso   1.000  H 
  H83      1.0000 0.38860  0.28510  0.00000  Biso   1.000  H 
  O51      1.0000 0.36740  0.42810  0.00000  Biso   1.000  O 
  O52      1.0000 0.42810  0.36740  0.00000  Biso   1.000  O 
  H84      1.0000 0.20033  0.37189  0.01646  Biso   1.000  H 
  C91      1.0000 0.19546  0.35605  0.94126  Biso   1.000  C 
  C92      1.0000 0.14001  0.36940  0.93608  Biso   1.000  C 
  C93      1.0000 0.12422  0.37035  0.88175  Biso   1.000  C 
  H85      1.0000 0.08641  0.38702  0.87982  Biso   1.000  H 
  C94      1.0000 0.12270  0.31825  0.85812  Biso   1.000  C 
  H86      1.0000 0.15041  0.39445  0.86059  Biso   1.000  H 
  H87      1.0000 0.20650  0.32484  0.91684  Biso   1.000  H 
  H88      1.0000 0.21800  0.38920  0.93103  Biso   1.000  H 
  H89      1.0000 0.13376  0.40708  0.95204  Biso   1.000  H 
  H90      1.0000 0.11678  0.34212  0.95677  Biso   1.000  H 
  H91      1.0000 0.09183  0.29678  0.87531  Biso   1.000  H 
  H92      1.0000 0.15756  0.29695  0.86295  Biso   1.000  H 
  C95      1.0000 0.11394  0.32248  0.80212  Biso   1.000  C 
  H93      1.0000 0.15039  0.32152  0.78261  Biso   1.000  H 
  H94      1.0000 0.09459  0.35767  0.79232  Biso   1.000  H 
  H95      1.0000 0.09111  0.29089  0.78912  Biso   1.000  H 
  O53      1.0000 0.07190  0.86740  0.00000  Biso   1.000  O 
  C96      1.0000 0.11720  0.88280  0.00000  Biso   1.000  C 
  O54      1.0000 0.13260  0.92810  0.00000  Biso   1.000  O 
  C97      1.0000 0.15650  0.84350  0.00000  Biso   1.000  C 
  C98      1.0000 0.14470  0.79420  0.00000  Biso   1.000  C 
  C99      1.0000 0.20580  0.85530  0.00000  Biso   1.000  C 
  C100     1.0000 0.17950  0.75800  0.00000  Biso   1.000  C 
  H96      1.0000 0.11140  0.78510  0.00000  Biso   1.000  H 
  C101     1.0000 0.24200  0.82050  0.00000  Biso   1.000  C 
  H97      1.0000 0.21490  0.88860  0.00000  Biso   1.000  H 
  C102     1.0000 0.23070  0.76930  0.00000  Biso   1.000  C 
  C103     1.0000 0.26930  0.73070  0.00000  Biso   1.000  C 
  H98      1.0000 0.16950  0.72490  0.00000  Biso   1.000  H 
  C104     1.0000 0.25800  0.67950  0.00000  Biso   1.000  C 
  H99      1.0000 0.27510  0.83050  0.00000  Biso   1.000  H 
  C105     1.0000 0.32050  0.74200  0.00000  Biso   1.000  C 
  C106     1.0000 0.29420  0.64470  0.00000  Biso   1.000  C 
  N6       1.0000 0.20576  0.65857  0.00721  Biso   1.000  N 
  C107     1.0000 0.35530  0.70580  0.00000  Biso   1.000  C 
  H100     1.0000 0.33050  0.77510  0.00000  Biso   1.000  H 
  C108     1.0000 0.34350  0.65650  0.00000  Biso   1.000  C 
  C109     1.0000 0.38280  0.61720  0.00000  Biso   1.000  C 
  H101     1.0000 0.28510  0.61140  0.00000  Biso   1.000  H 
  H102     1.0000 0.38860  0.71490  0.00000  Biso   1.000  H 
  O55      1.0000 0.36740  0.57190  0.00000  Biso   1.000  O 
  O56      1.0000 0.42810  0.63260  0.00000  Biso   1.000  O 
  H103     1.0000 0.20033  0.62811  0.98354  Biso   1.000  H 
  C110     1.0000 0.19546  0.64395  0.05874  Biso   1.000  C 
  C111     1.0000 0.14001  0.63060  0.06393  Biso   1.000  C 
  C112     1.0000 0.12422  0.62964  0.11825  Biso   1.000  C 
  H104     1.0000 0.08641  0.61298  0.12018  Biso   1.000  H 
  C113     1.0000 0.12270  0.68174  0.14188  Biso   1.000  C 
  H105     1.0000 0.15041  0.60555  0.13941  Biso   1.000  H 
  H106     1.0000 0.20650  0.67516  0.08316  Biso   1.000  H 
  H107     1.0000 0.21800  0.61080  0.06897  Biso   1.000  H 
  H108     1.0000 0.13376  0.59292  0.04796  Biso   1.000  H 
  H109     1.0000 0.11678  0.65788  0.04323  Biso   1.000  H 
  H110     1.0000 0.09183  0.70322  0.12469  Biso   1.000  H 
  H111     1.0000 0.15756  0.70305  0.13705  Biso   1.000  H 
  C114     1.0000 0.11394  0.67752  0.19788  Biso   1.000  C 
  H112     1.0000 0.15039  0.67848  0.21738  Biso   1.000  H 
  H113     1.0000 0.09459  0.64233  0.20768  Biso   1.000  H 
  H114     1.0000 0.09111  0.70911  0.21087  Biso   1.000  H 
  O57      1.0000 0.92810  0.86740  0.00000  Biso   1.000  O 
  C115     1.0000 0.88280  0.88280  0.00000  Biso   1.000  C 
  O58      1.0000 0.86740  0.92810  0.00000  Biso   1.000  O 
  C116     1.0000 0.84350  0.84350  0.00000  Biso   1.000  C 
  C117     1.0000 0.85530  0.79420  0.00000  Biso   1.000  C 
  C118     1.0000 0.79420  0.85530  0.00000  Biso   1.000  C 
  C119     1.0000 0.82050  0.75800  0.00000  Biso   1.000  C 
  H115     1.0000 0.88860  0.78510  0.00000  Biso   1.000  H 
  C120     1.0000 0.75800  0.82050  0.00000  Biso   1.000  C 
  H116     1.0000 0.78510  0.88860  0.00000  Biso   1.000  H 
  C121     1.0000 0.76930  0.76930  0.00000  Biso   1.000  C 
  C122     1.0000 0.73070  0.73070  0.00000  Biso   1.000  C 
  H117     1.0000 0.83050  0.72490  0.00000  Biso   1.000  H 
  C123     1.0000 0.74200  0.67950  0.00000  Biso   1.000  C 
  H118     1.0000 0.72490  0.83050  0.00000  Biso   1.000  H 
  C124     1.0000 0.67950  0.74200  0.00000  Biso   1.000  C 
  C125     1.0000 0.70580  0.64470  0.00000  Biso   1.000  C 
  N7       1.0000 0.79424  0.65857  0.99279  Biso   1.000  N 
  C126     1.0000 0.64470  0.70580  0.00000  Biso   1.000  C 
  H119     1.0000 0.66950  0.77510  0.00000  Biso   1.000  H 
  C127     1.0000 0.65650  0.65650  0.00000  Biso   1.000  C 
  C128     1.0000 0.61720  0.61720  0.00000  Biso   1.000  C 
  H120     1.0000 0.71490  0.61140  0.00000  Biso   1.000  H 
  H121     1.0000 0.61140  0.71490  0.00000  Biso   1.000  H 
  O59      1.0000 0.63260  0.57190  0.00000  Biso   1.000  O 
  O60      1.0000 0.57190  0.63260  0.00000  Biso   1.000  O 
  H122     1.0000 0.79967  0.62811  0.01646  Biso   1.000  H 
  C129     1.0000 0.80454  0.64395  0.94126  Biso   1.000  C 
  C130     1.0000 0.85999  0.63060  0.93608  Biso   1.000  C 
  C131     1.0000 0.87578  0.62965  0.88175  Biso   1.000  C 
  H123     1.0000 0.91359  0.61298  0.87982  Biso   1.000  H 
  C132     1.0000 0.87730  0.68174  0.85812  Biso   1.000  C 
  H124     1.0000 0.84959  0.60555  0.86059  Biso   1.000  H 
  H125     1.0000 0.79350  0.67516  0.91684  Biso   1.000  H 
  H126     1.0000 0.78200  0.61080  0.93103  Biso   1.000  H 
  H127     1.0000 0.86624  0.59292  0.95204  Biso   1.000  H 
  H128     1.0000 0.88322  0.65788  0.95677  Biso   1.000  H 
  H129     1.0000 0.90817  0.70322  0.87531  Biso   1.000  H 
  H130     1.0000 0.84244  0.70305  0.86295  Biso   1.000  H 
  C133     1.0000 0.88606  0.67752  0.80212  Biso   1.000  C 
  H131     1.0000 0.84961  0.67848  0.78261  Biso   1.000  H 
  H132     1.0000 0.90541  0.64233  0.79232  Biso   1.000  H 
  H133     1.0000 0.90889  0.70911  0.78912  Biso   1.000  H 
  O61      1.0000 0.92810  0.13260  0.00000  Biso   1.000  O 
  C134     1.0000 0.88280  0.11720  0.00000  Biso   1.000  C 
  O62      1.0000 0.86740  0.07190  0.00000  Biso   1.000  O 
  C135     1.0000 0.84350  0.15650  0.00000  Biso   1.000  C 
  C136     1.0000 0.85530  0.20580  0.00000  Biso   1.000  C 
  C137     1.0000 0.79420  0.14470  0.00000  Biso   1.000  C 
  C138     1.0000 0.82050  0.24200  0.00000  Biso   1.000  C 
  H134     1.0000 0.88860  0.21490  0.00000  Biso   1.000  H 
  C139     1.0000 0.75800  0.17950  0.00000  Biso   1.000  C 
  H135     1.0000 0.78510  0.11140  0.00000  Biso   1.000  H 
  C140     1.0000 0.76930  0.23070  0.00000  Biso   1.000  C 
  C141     1.0000 0.73070  0.26930  0.00000  Biso   1.000  C 
  H136     1.0000 0.83050  0.27510  0.00000  Biso   1.000  H 
  C142     1.0000 0.74200  0.32050  0.00000  Biso   1.000  C 
  H137     1.0000 0.72490  0.16950  0.00000  Biso   1.000  H 
  C143     1.0000 0.67950  0.25800  0.00000  Biso   1.000  C 
  C144     1.0000 0.70580  0.35530  0.00000  Biso   1.000  C 
  N8       1.0000 0.79424  0.34143  0.00721  Biso   1.000  N 
  C145     1.0000 0.64470  0.29420  0.00000  Biso   1.000  C 
  H138     1.0000 0.66950  0.22490  0.00000  Biso   1.000  H 
  C146     1.0000 0.65650  0.34350  0.00000  Biso   1.000  C 
  C147     1.0000 0.61720  0.38280  0.00000  Biso   1.000  C 
  H139     1.0000 0.71490  0.38860  0.00000  Biso   1.000  H 
  H140     1.0000 0.61140  0.28510  0.00000  Biso   1.000  H 
  O63      1.0000 0.63260  0.42810  0.00000  Biso   1.000  O 
  O64      1.0000 0.57190  0.36740  0.00000  Biso   1.000  O 
  H141     1.0000 0.79967  0.37189  0.98354  Biso   1.000  H 
  C148     1.0000 0.80454  0.35605  0.05874  Biso   1.000  C 
  C149     1.0000 0.85999  0.36940  0.06393  Biso   1.000  C 
  C150     1.0000 0.87578  0.37035  0.11825  Biso   1.000  C 
  H142     1.0000 0.91359  0.38702  0.12018  Biso   1.000  H 
  C151     1.0000 0.87730  0.31825  0.14188  Biso   1.000  C 
  H143     1.0000 0.84959  0.39445  0.13941  Biso   1.000  H 
  H144     1.0000 0.79350  0.32484  0.08316  Biso   1.000  H 
  H145     1.0000 0.78200  0.38920  0.06897  Biso   1.000  H 
  H146     1.0000 0.86624  0.40708  0.04796  Biso   1.000  H 
  H147     1.0000 0.88322  0.34212  0.04323  Biso   1.000  H 
  H148     1.0000 0.90817  0.29678  0.12469  Biso   1.000  H 
  H149     1.0000 0.84244  0.29695  0.13705  Biso   1.000  H 
  C152     1.0000 0.88606  0.32248  0.19788  Biso   1.000  C 
  H150     1.0000 0.84961  0.32152  0.21738  Biso   1.000  H 
  H151     1.0000 0.90541  0.35767  0.20768  Biso   1.000  H 
  H152     1.0000 0.90889  0.29089  0.21087  Biso   1.000  H 
  O65      1.0000 0.00000  0.07190  0.13260  Biso   1.000  O 
  C153     1.0000 0.00000  0.11720  0.11720  Biso   1.000  C 
  O66      1.0000 0.00000  0.13260  0.07190  Biso   1.000  O 
  C154     1.0000 0.00000  0.15650  0.15650  Biso   1.000  C 
  C155     1.0000 0.00000  0.14470  0.20580  Biso   1.000  C 
  C156     1.0000 0.00000  0.20580  0.14470  Biso   1.000  C 
  C157     1.0000 0.00000  0.17950  0.24200  Biso   1.000  C 
  H153     1.0000 0.00000  0.11140  0.21490  Biso   1.000  H 
  C158     1.0000 0.00000  0.24200  0.17950  Biso   1.000  C 
  H154     1.0000 0.00000  0.21490  0.11140  Biso   1.000  H 
  C159     1.0000 0.00000  0.23070  0.23070  Biso   1.000  C 
  C160     1.0000 0.00000  0.26930  0.26930  Biso   1.000  C 
  H155     1.0000 0.00000  0.16950  0.27510  Biso   1.000  H 
  C161     1.0000 0.00000  0.25800  0.32050  Biso   1.000  C 
  H156     1.0000 0.00000  0.27510  0.16950  Biso   1.000  H 
  C162     1.0000 0.00000  0.32050  0.25800  Biso   1.000  C 
  C163     1.0000 0.00000  0.29420  0.35530  Biso   1.000  C 
  N9       1.0000 0.02678  0.21056  0.33805  Biso   1.000  N 
  C164     1.0000 0.00000  0.35530  0.29420  Biso   1.000  C 
  H157     1.0000 0.00000  0.33050  0.22490  Biso   1.000  H 
  C165     1.0000 0.00000  0.34350  0.34350  Biso   1.000  C 
  C166     1.0000 0.00000  0.38280  0.38280  Biso   1.000  C 
  H158     1.0000 0.00000  0.28510  0.38860  Biso   1.000  H 
  H159     1.0000 0.00000  0.38860  0.28510  Biso   1.000  H 
  O67      1.0000 0.00000  0.36740  0.42810  Biso   1.000  O 
  O68      1.0000 0.00000  0.42810  0.36740  Biso   1.000  O 
  H160     1.0000 0.06183  0.21649  0.32227  Biso   1.000  H 
  C167     1.0000 0.03491  0.20146  0.39140  Biso   1.000  C 
  C168     1.0000 0.07566  0.16231  0.39653  Biso   1.000  C 
  C169     1.0000 0.07531  0.13644  0.44643  Biso   1.000  C 
  H161     1.0000 0.11543  0.12902  0.45453  Biso   1.000  H 
  C170     1.0000 0.04899  0.08805  0.43974  Biso   1.000  C 
  H162     1.0000 0.05554  0.15686  0.47645  Biso   1.000  H 
  H163     1.0000 0.99913  0.19561  0.41141  Biso   1.000  H 
  H164     1.0000 0.05220  0.23496  0.40844  Biso   1.000  H 
  H165     1.0000 0.11245  0.18070  0.39031  Biso   1.000  H 
  H166     1.0000 0.06862  0.13632  0.36751  Biso   1.000  H 
  H167     1.0000 0.05390  0.06912  0.47631  Biso   1.000  H 
  H168     1.0000 0.06731  0.06403  0.41091  Biso   1.000  H 
  C171     1.0000 0.99285  0.09314  0.42962  Biso   1.000  C 
  H169     1.0000 0.97642  0.12609  0.44801  Biso   1.000  H 
  H170     1.0000 0.97398  0.06015  0.44081  Biso   1.000  H 
  H171     1.0000 0.99033  0.09778  0.38789  Biso   1.000  H 
  O69      1.0000 0.00000  0.07190  0.86740  Biso   1.000  O 
  C172     1.0000 0.00000  0.11720  0.88280  Biso   1.000  C 
  O70      1.0000 0.00000  0.13260  0.92810  Biso   1.000  O 
  C173     1.0000 0.00000  0.15650  0.84350  Biso   1.000  C 
  C174     1.0000 0.00000  0.14470  0.79420  Biso   1.000  C 
  C175     1.0000 0.00000  0.20580  0.85530  Biso   1.000  C 
  C176     1.0000 0.00000  0.17950  0.75800  Biso   1.000  C 
  H172     1.0000 0.00000  0.11140  0.78510  Biso   1.000  H 
  C177     1.0000 0.00000  0.24200  0.82050  Biso   1.000  C 
  H173     1.0000 0.00000  0.21490  0.88860  Biso   1.000  H 
  C178     1.0000 0.00000  0.23070  0.76930  Biso   1.000  C 
  C179     1.0000 0.00000  0.26930  0.73070  Biso   1.000  C 
  H174     1.0000 0.00000  0.16950  0.72490  Biso   1.000  H 
  C180     1.0000 0.00000  0.25800  0.67950  Biso   1.000  C 
  H175     1.0000 0.00000  0.27510  0.83050  Biso   1.000  H 
  C181     1.0000 0.00000  0.32050  0.74200  Biso   1.000  C 
  C182     1.0000 0.00000  0.29420  0.64470  Biso   1.000  C 
  N10      1.0000 0.97310  0.21043  0.66214  Biso   1.000  N 
  C183     1.0000 0.00000  0.35530  0.70580  Biso   1.000  C 
  H176     1.0000 0.00000  0.33050  0.77510  Biso   1.000  H 
  C184     1.0000 0.00000  0.34350  0.65650  Biso   1.000  C 
  C185     1.0000 0.00000  0.38280  0.61720  Biso   1.000  C 
  H177     1.0000 0.00000  0.28510  0.61140  Biso   1.000  H 
  H178     1.0000 0.00000  0.38860  0.71490  Biso   1.000  H 
  O71      1.0000 0.00000  0.36740  0.57190  Biso   1.000  O 
  O72      1.0000 0.00000  0.42810  0.63260  Biso   1.000  O 
  H179     1.0000 0.93820  0.21611  0.67845  Biso   1.000  H 
  C186     1.0000 0.96476  0.20122  0.60879  Biso   1.000  C 
  C187     1.0000 0.92465  0.16148  0.60386  Biso   1.000  C 
  C188     1.0000 0.92455  0.13634  0.55363  Biso   1.000  C 
  H180     1.0000 0.88439  0.12907  0.54560  Biso   1.000  H 
  C189     1.0000 0.95109  0.08794  0.55947  Biso   1.000  C 
  H181     1.0000 0.94416  0.15733  0.52390  Biso   1.000  H 
  H182     1.0000 0.00046  0.19630  0.58850  Biso   1.000  H 
  H183     1.0000 0.94681  0.23472  0.59239  Biso   1.000  H 
  H184     1.0000 0.88778  0.17919  0.61083  Biso   1.000  H 
  H185     1.0000 0.93291  0.13530  0.63249  Biso   1.000  H 
  H186     1.0000 0.94723  0.06996  0.52247  Biso   1.000  H 
  H187     1.0000 0.93210  0.06319  0.58728  Biso   1.000  H 
  C190     1.0000 0.00718  0.09285  0.57118  Biso   1.000  C 
  H188     1.0000 0.02384  0.12622  0.55422  Biso   1.000  H 
  H189     1.0000 0.02641  0.06015  0.55955  Biso   1.000  H 
  H190     1.0000 0.00861  0.09650  0.61309  Biso   1.000  H 
  O73      1.0000 0.00000  0.92810  0.86740  Biso   1.000  O 
  C191     1.0000 0.00000  0.88280  0.88280  Biso   1.000  C 
  O74      1.0000 0.00000  0.86740  0.92810  Biso   1.000  O 
  C192     1.0000 0.00000  0.84350  0.84350  Biso   1.000  C 
  C193     1.0000 0.00000  0.85530  0.79420  Biso   1.000  C 
  C194     1.0000 0.00000  0.79420  0.85530  Biso   1.000  C 
  C195     1.0000 0.00000  0.82050  0.75800  Biso   1.000  C 
  H191     1.0000 0.00000  0.88860  0.78510  Biso   1.000  H 
  C196     1.0000 0.00000  0.75800  0.82050  Biso   1.000  C 
  H192     1.0000 0.00000  0.78510  0.88860  Biso   1.000  H 
  C197     1.0000 0.00000  0.76930  0.76930  Biso   1.000  C 
  C198     1.0000 0.00000  0.73070  0.73070  Biso   1.000  C 
  H193     1.0000 0.00000  0.83050  0.72490  Biso   1.000  H 
  C199     1.0000 0.00000  0.74200  0.67950  Biso   1.000  C 
  H194     1.0000 0.00000  0.72490  0.83050  Biso   1.000  H 
  C200     1.0000 0.00000  0.67950  0.74200  Biso   1.000  C 
  C201     1.0000 0.00000  0.70580  0.64470  Biso   1.000  C 
  N11      1.0000 0.02686  0.78954  0.66209  Biso   1.000  N 
  C202     1.0000 0.00000  0.64470  0.70580  Biso   1.000  C 
  H195     1.0000 0.00000  0.66950  0.77510  Biso   1.000  H 
  C203     1.0000 0.00000  0.65650  0.65650  Biso   1.000  C 
  C204     1.0000 0.00000  0.61720  0.61720  Biso   1.000  C 
  H196     1.0000 0.00000  0.71490  0.61140  Biso   1.000  H 
  H197     1.0000 0.00000  0.61140  0.71490  Biso   1.000  H 
  O75      1.0000 0.00000  0.63260  0.57190  Biso   1.000  O 
  O76      1.0000 0.00000  0.57190  0.63260  Biso   1.000  O 
  H198     1.0000 0.06180  0.78381  0.67830  Biso   1.000  H 
  C205     1.0000 0.03513  0.79875  0.60875  Biso   1.000  C 
  C206     1.0000 0.07541  0.83832  0.60375  Biso   1.000  C 
  C207     1.0000 0.07541  0.86359  0.55360  Biso   1.000  C 
  H199     1.0000 0.11556  0.87094  0.54558  Biso   1.000  H 
  C208     1.0000 0.04886  0.91199  0.55963  Biso   1.000  C 
  H200     1.0000 0.05580  0.84271  0.52380  Biso   1.000  H 
  H201     1.0000 0.99940  0.80390  0.58854  Biso   1.000  H 
  H202     1.0000 0.05290  0.76524  0.59218  Biso   1.000  H 
  H203     1.0000 0.11225  0.82043  0.61056  Biso   1.000  H 
  H204     1.0000 0.06744  0.86449  0.63247  Biso   1.000  H 
  H205     1.0000 0.05292  0.93018  0.52272  Biso   1.000  H 
  H206     1.0000 0.06770  0.93660  0.58766  Biso   1.000  H 
  C209     1.0000 0.99278  0.90698  0.57106  Biso   1.000  C 
  H207     1.0000 0.97615  0.87384  0.55356  Biso   1.000  H 
  H208     1.0000 0.97366  0.93986  0.55975  Biso   1.000  H 
  H209     1.0000 0.99114  0.90281  0.61292  Biso   1.000  H 
  O77      1.0000 0.00000  0.92810  0.13260  Biso   1.000  O 
  C210     1.0000 0.00000  0.88280  0.11720  Biso   1.000  C 
  O78      1.0000 0.00000  0.86740  0.07190  Biso   1.000  O 
  C211     1.0000 0.00000  0.84350  0.15650  Biso   1.000  C 
  C212     1.0000 0.00000  0.85530  0.20580  Biso   1.000  C 
  C213     1.0000 0.00000  0.79420  0.14470  Biso   1.000  C 
  C214     1.0000 0.00000  0.82050  0.24200  Biso   1.000  C 
  H210     1.0000 0.00000  0.88860  0.21490  Biso   1.000  H 
  C215     1.0000 0.00000  0.75800  0.17950  Biso   1.000  C 
  H211     1.0000 0.00000  0.78510  0.11140  Biso   1.000  H 
  C216     1.0000 0.00000  0.76930  0.23070  Biso   1.000  C 
  C217     1.0000 0.00000  0.73070  0.26930  Biso   1.000  C 
  H212     1.0000 0.00000  0.83050  0.27510  Biso   1.000  H 
  C218     1.0000 0.00000  0.74200  0.32050  Biso   1.000  C 
  H213     1.0000 0.00000  0.72490  0.16950  Biso   1.000  H 
  C219     1.0000 0.00000  0.67950  0.25800  Biso   1.000  C 
  C220     1.0000 0.00000  0.70580  0.35530  Biso   1.000  C 
  N12      1.0000 0.97319  0.78946  0.33801  Biso   1.000  N 
  C221     1.0000 0.00000  0.64470  0.29420  Biso   1.000  C 
  H214     1.0000 0.00000  0.66950  0.22490  Biso   1.000  H 
  C222     1.0000 0.00000  0.65650  0.34350  Biso   1.000  C 
  C223     1.0000 0.00000  0.61720  0.38280  Biso   1.000  C 
  H215     1.0000 0.00000  0.71490  0.38860  Biso   1.000  H 
  H216     1.0000 0.00000  0.61140  0.28510  Biso   1.000  H 
  O79      1.0000 0.00000  0.63260  0.42810  Biso   1.000  O 
  O80      1.0000 0.00000  0.57190  0.36740  Biso   1.000  O 
  H217     1.0000 0.93817  0.78357  0.32212  Biso   1.000  H 
  C224     1.0000 0.96498  0.79857  0.39136  Biso   1.000  C 
  C225     1.0000 0.92441  0.83787  0.39643  Biso   1.000  C 
  C226     1.0000 0.92464  0.86360  0.44640  Biso   1.000  C 
  H218     1.0000 0.88450  0.87094  0.45451  Biso   1.000  H 
  C227     1.0000 0.95093  0.91201  0.43991  Biso   1.000  C 
  H219     1.0000 0.94442  0.84309  0.47634  Biso   1.000  H 
  H220     1.0000 0.00075  0.80419  0.41146  Biso   1.000  H 
  H221     1.0000 0.94753  0.76507  0.40823  Biso   1.000  H 
  H222     1.0000 0.88757  0.81965  0.39002  Biso   1.000  H 
  H223     1.0000 0.93174  0.86389  0.36750  Biso   1.000  H 
  H224     1.0000 0.94617  0.93075  0.47657  Biso   1.000  H 
  H225     1.0000 0.93247  0.93614  0.41128  Biso   1.000  H 
  C228     1.0000 0.00710  0.90701  0.42956  Biso   1.000  C 
  H226     1.0000 0.02356  0.87383  0.44743  Biso   1.000  H 
  H227     1.0000 0.02607  0.93983  0.44107  Biso   1.000  H 
  H228     1.0000 0.00943  0.90288  0.38776  Biso   1.000  H 
  O81      1.0000 0.13260  0.50000  0.57190  Biso   1.000  O 
  C229     1.0000 0.11720  0.50000  0.61720  Biso   1.000  C 
  O82      1.0000 0.07190  0.50000  0.63260  Biso   1.000  O 
  C230     1.0000 0.15650  0.50000  0.65650  Biso   1.000  C 
  C231     1.0000 0.20580  0.50000  0.64470  Biso   1.000  C 
  C232     1.0000 0.14470  0.50000  0.70580  Biso   1.000  C 
  C233     1.0000 0.24200  0.50000  0.67950  Biso   1.000  C 
  H229     1.0000 0.21490  0.50000  0.61140  Biso   1.000  H 
  C234     1.0000 0.17950  0.50000  0.74200  Biso   1.000  C 
  H230     1.0000 0.11140  0.50000  0.71490  Biso   1.000  H 
  C235     1.0000 0.23070  0.50000  0.73070  Biso   1.000  C 
  C236     1.0000 0.26930  0.50000  0.76930  Biso   1.000  C 
  H231     1.0000 0.27510  0.50000  0.66950  Biso   1.000  H 
  C237     1.0000 0.32050  0.50000  0.75800  Biso   1.000  C 
  H232     1.0000 0.16950  0.50000  0.77510  Biso   1.000  H 
  C238     1.0000 0.25800  0.50000  0.82050  Biso   1.000  C 
  C239     1.0000 0.35530  0.50000  0.79420  Biso   1.000  C 
  N13      1.0000 0.33936  0.48263  0.70752  Biso   1.000  N 
  C240     1.0000 0.29420  0.50000  0.85530  Biso   1.000  C 
  H233     1.0000 0.22490  0.50000  0.83050  Biso   1.000  H 
  C241     1.0000 0.34350  0.50000  0.84350  Biso   1.000  C 
  C242     1.0000 0.38280  0.50000  0.88280  Biso   1.000  C 
  H234     1.0000 0.38860  0.50000  0.78510  Biso   1.000  H 
  H235     1.0000 0.28510  0.50000  0.88860  Biso   1.000  H 
  O83      1.0000 0.42810  0.50000  0.86740  Biso   1.000  O 
  O84      1.0000 0.36740  0.50000  0.92810  Biso   1.000  O 
  H236     1.0000 0.36986  0.50466  0.69744  Biso   1.000  H 
  C243     1.0000 0.35417  0.42983  0.70972  Biso   1.000  C 
  C244     1.0000 0.34264  0.40319  0.66039  Biso   1.000  C 
  C245     1.0000 0.36766  0.35163  0.65805  Biso   1.000  C 
  H237     1.0000 0.37255  0.34157  0.61820  Biso   1.000  H 
  C246     1.0000 0.33682  0.31165  0.68497  Biso   1.000  C 
  H238     1.0000 0.40516  0.35344  0.67552  Biso   1.000  H 
  H239     1.0000 0.33409  0.40954  0.73978  Biso   1.000  H 
  H240     1.0000 0.39484  0.42753  0.71720  Biso   1.000  H 
  H241     1.0000 0.35819  0.42600  0.62968  Biso   1.000  H 
  H242     1.0000 0.30179  0.39967  0.65472  Biso   1.000  H 
  H243     1.0000 0.29620  0.31839  0.68090  Biso   1.000  H 
  H244     1.0000 0.34652  0.31155  0.72522  Biso   1.000  H 
  C247     1.0000 0.34753  0.26078  0.66247  Biso   1.000  C 
  H245     1.0000 0.38823  0.25681  0.65593  Biso   1.000  H 
  H246     1.0000 0.32710  0.25681  0.62677  Biso   1.000  H 
  H247     1.0000 0.33527  0.23107  0.68830  Biso   1.000  H 
  O85      1.0000 0.86740  0.50000  0.57190  Biso   1.000  O 
  C248     1.0000 0.88280  0.50000  0.61720  Biso   1.000  C 
  O86      1.0000 0.92810  0.50000  0.63260  Biso   1.000  O 
  C249     1.0000 0.84350  0.50000  0.65650  Biso   1.000  C 
  C250     1.0000 0.79420  0.50000  0.64470  Biso   1.000  C 
  C251     1.0000 0.85530  0.50000  0.70580  Biso   1.000  C 
  C252     1.0000 0.75800  0.50000  0.67950  Biso   1.000  C 
  H248     1.0000 0.78510  0.50000  0.61140  Biso   1.000  H 
  C253     1.0000 0.82050  0.50000  0.74200  Biso   1.000  C 
  H249     1.0000 0.88860  0.50000  0.71490  Biso   1.000  H 
  C254     1.0000 0.76930  0.50000  0.73070  Biso   1.000  C 
  C255     1.0000 0.73070  0.50000  0.76930  Biso   1.000  C 
  H250     1.0000 0.72490  0.50000  0.66950  Biso   1.000  H 
  C256     1.0000 0.67950  0.50000  0.75800  Biso   1.000  C 
  H251     1.0000 0.83050  0.50000  0.77510  Biso   1.000  H 
  C257     1.0000 0.74200  0.50000  0.82050  Biso   1.000  C 
  C258     1.0000 0.64470  0.50000  0.79420  Biso   1.000  C 
  N14      1.0000 0.66064  0.51737  0.70752  Biso   1.000  N 
  C259     1.0000 0.70580  0.50000  0.85530  Biso   1.000  C 
  H252     1.0000 0.77510  0.50000  0.83050  Biso   1.000  H 
  C260     1.0000 0.65650  0.50000  0.84350  Biso   1.000  C 
  C261     1.0000 0.61720  0.50000  0.88280  Biso   1.000  C 
  H253     1.0000 0.61140  0.50000  0.78510  Biso   1.000  H 
  H254     1.0000 0.71490  0.50000  0.88860  Biso   1.000  H 
  O87      1.0000 0.57190  0.50000  0.86740  Biso   1.000  O 
  O88      1.0000 0.63260  0.50000  0.92810  Biso   1.000  O 
  H255     1.0000 0.63014  0.49534  0.69744  Biso   1.000  H 
  C262     1.0000 0.64582  0.57017  0.70972  Biso   1.000  C 
  C263     1.0000 0.65737  0.59681  0.66039  Biso   1.000  C 
  C264     1.0000 0.63234  0.64837  0.65805  Biso   1.000  C 
  H256     1.0000 0.62745  0.65843  0.61820  Biso   1.000  H 
  C265     1.0000 0.66318  0.68835  0.68497  Biso   1.000  C 
  H257     1.0000 0.59484  0.64656  0.67552  Biso   1.000  H 
  H258     1.0000 0.66591  0.59046  0.73978  Biso   1.000  H 
  H259     1.0000 0.60516  0.57247  0.71720  Biso   1.000  H 
  H260     1.0000 0.64181  0.57400  0.62968  Biso   1.000  H 
  H261     1.0000 0.69821  0.60033  0.65472  Biso   1.000  H 
  H262     1.0000 0.70380  0.68161  0.68090  Biso   1.000  H 
  H263     1.0000 0.65348  0.68845  0.72522  Biso   1.000  H 
  C266     1.0000 0.65247  0.73922  0.66247  Biso   1.000  C 
  H264     1.0000 0.61177  0.74319  0.65593  Biso   1.000  H 
  H265     1.0000 0.67290  0.74319  0.62677  Biso   1.000  H 
  H266     1.0000 0.66473  0.76893  0.68830  Biso   1.000  H 
  O89      1.0000 0.86740  0.50000  0.42810  Biso   1.000  O 
  C267     1.0000 0.88280  0.50000  0.38280  Biso   1.000  C 
  O90      1.0000 0.92810  0.50000  0.36740  Biso   1.000  O 
  C268     1.0000 0.84350  0.50000  0.34350  Biso   1.000  C 
  C269     1.0000 0.79420  0.50000  0.35530  Biso   1.000  C 
  C270     1.0000 0.85530  0.50000  0.29420  Biso   1.000  C 
  C271     1.0000 0.75800  0.50000  0.32050  Biso   1.000  C 
  H267     1.0000 0.78510  0.50000  0.38860  Biso   1.000  H 
  C272     1.0000 0.82050  0.50000  0.25800  Biso   1.000  C 
  H268     1.0000 0.88860  0.50000  0.28510  Biso   1.000  H 
  C273     1.0000 0.76930  0.50000  0.26930  Biso   1.000  C 
  C274     1.0000 0.73070  0.50000  0.23070  Biso   1.000  C 
  H269     1.0000 0.72490  0.50000  0.33050  Biso   1.000  H 
  C275     1.0000 0.67950  0.50000  0.24200  Biso   1.000  C 
  H270     1.0000 0.83050  0.50000  0.22490  Biso   1.000  H 
  C276     1.0000 0.74200  0.50000  0.17950  Biso   1.000  C 
  C277     1.0000 0.64470  0.50000  0.20580  Biso   1.000  C 
  N15      1.0000 0.66064  0.48263  0.29248  Biso   1.000  N 
  C278     1.0000 0.70580  0.50000  0.14470  Biso   1.000  C 
  H271     1.0000 0.77510  0.50000  0.16950  Biso   1.000  H 
  C279     1.0000 0.65650  0.50000  0.15650  Biso   1.000  C 
  C280     1.0000 0.61720  0.50000  0.11720  Biso   1.000  C 
  H272     1.0000 0.61140  0.50000  0.21490  Biso   1.000  H 
  H273     1.0000 0.71490  0.50000  0.11140  Biso   1.000  H 
  O91      1.0000 0.57190  0.50000  0.13260  Biso   1.000  O 
  O92      1.0000 0.63260  0.50000  0.07190  Biso   1.000  O 
  H274     1.0000 0.63014  0.50466  0.30256  Biso   1.000  H 
  C281     1.0000 0.64582  0.42983  0.29028  Biso   1.000  C 
  C282     1.0000 0.65737  0.40319  0.33961  Biso   1.000  C 
  C283     1.0000 0.63234  0.35163  0.34195  Biso   1.000  C 
  H275     1.0000 0.62745  0.34157  0.38180  Biso   1.000  H 
  C284     1.0000 0.66318  0.31165  0.31503  Biso   1.000  C 
  H276     1.0000 0.59484  0.35344  0.32448  Biso   1.000  H 
  H277     1.0000 0.66591  0.40954  0.26022  Biso   1.000  H 
  H278     1.0000 0.60516  0.42753  0.28280  Biso   1.000  H 
  H279     1.0000 0.64181  0.42600  0.37032  Biso   1.000  H 
  H280     1.0000 0.69821  0.39967  0.34528  Biso   1.000  H 
  H281     1.0000 0.70380  0.31839  0.31911  Biso   1.000  H 
  H282     1.0000 0.65348  0.31155  0.27478  Biso   1.000  H 
  C285     1.0000 0.65247  0.26078  0.33753  Biso   1.000  C 
  H283     1.0000 0.61177  0.25681  0.34407  Biso   1.000  H 
  H284     1.0000 0.67290  0.25681  0.37323  Biso   1.000  H 
  H285     1.0000 0.66473  0.23107  0.31170  Biso   1.000  H 
  O93      1.0000 0.13260  0.50000  0.42810  Biso   1.000  O 
  C286     1.0000 0.11720  0.50000  0.38280  Biso   1.000  C 
  O94      1.0000 0.07190  0.50000  0.36740  Biso   1.000  O 
  C287     1.0000 0.15650  0.50000  0.34350  Biso   1.000  C 
  C288     1.0000 0.20580  0.50000  0.35530  Biso   1.000  C 
  C289     1.0000 0.14470  0.50000  0.29420  Biso   1.000  C 
  C290     1.0000 0.24200  0.50000  0.32050  Biso   1.000  C 
  H286     1.0000 0.21490  0.50000  0.38860  Biso   1.000  H 
  C291     1.0000 0.17950  0.50000  0.25800  Biso   1.000  C 
  H287     1.0000 0.11140  0.50000  0.28510  Biso   1.000  H 
  C292     1.0000 0.23070  0.50000  0.26930  Biso   1.000  C 
  C293     1.0000 0.26930  0.50000  0.23070  Biso   1.000  C 
  H288     1.0000 0.27510  0.50000  0.33050  Biso   1.000  H 
  C294     1.0000 0.32050  0.50000  0.24200  Biso   1.000  C 
  H289     1.0000 0.16950  0.50000  0.22490  Biso   1.000  H 
  C295     1.0000 0.25800  0.50000  0.17950  Biso   1.000  C 
  C296     1.0000 0.35530  0.50000  0.20580  Biso   1.000  C 
  N16      1.0000 0.33936  0.51737  0.29248  Biso   1.000  N 
  C297     1.0000 0.29420  0.50000  0.14470  Biso   1.000  C 
  H290     1.0000 0.22490  0.50000  0.16950  Biso   1.000  H 
  C298     1.0000 0.34350  0.50000  0.15650  Biso   1.000  C 
  C299     1.0000 0.38280  0.50000  0.11720  Biso   1.000  C 
  H291     1.0000 0.38860  0.50000  0.21490  Biso   1.000  H 
  H292     1.0000 0.28510  0.50000  0.11140  Biso   1.000  H 
  O95      1.0000 0.42810  0.50000  0.13260  Biso   1.000  O 
  O96      1.0000 0.36740  0.50000  0.07190  Biso   1.000  O 
  H293     1.0000 0.36986  0.49534  0.30256  Biso   1.000  H 
  C300     1.0000 0.35417  0.57017  0.29028  Biso   1.000  C 
  C301     1.0000 0.34264  0.59681  0.33961  Biso   1.000  C 
  C302     1.0000 0.36766  0.64837  0.34195  Biso   1.000  C 
  H294     1.0000 0.37255  0.65843  0.38180  Biso   1.000  H 
  C303     1.0000 0.33682  0.68835  0.31503  Biso   1.000  C 
  H295     1.0000 0.40516  0.64656  0.32448  Biso   1.000  H 
  H296     1.0000 0.33409  0.59046  0.26022  Biso   1.000  H 
  H297     1.0000 0.39484  0.57247  0.28280  Biso   1.000  H 
  H298     1.0000 0.35819  0.57400  0.37032  Biso   1.000  H 
  H299     1.0000 0.30179  0.60033  0.34528  Biso   1.000  H 
  H300     1.0000 0.29620  0.68161  0.31910  Biso   1.000  H 
  H301     1.0000 0.34652  0.68845  0.27478  Biso   1.000  H 
  C304     1.0000 0.34753  0.73922  0.33753  Biso   1.000  C 
  H302     1.0000 0.38823  0.74319  0.34407  Biso   1.000  H 
  H303     1.0000 0.32710  0.74319  0.37323  Biso   1.000  H 
  H304     1.0000 0.33527  0.76893  0.31170  Biso   1.000  H 
  O97      1.0000 0.07190  0.63260  0.50000  Biso   1.000  O 
  C305     1.0000 0.11720  0.61720  0.50000  Biso   1.000  C 
  O98      1.0000 0.13260  0.57190  0.50000  Biso   1.000  O 
  C306     1.0000 0.15650  0.65650  0.50000  Biso   1.000  C 
  C307     1.0000 0.14470  0.70580  0.50000  Biso   1.000  C 
  C308     1.0000 0.20580  0.64470  0.50000  Biso   1.000  C 
  C309     1.0000 0.17950  0.74200  0.50000  Biso   1.000  C 
  H305     1.0000 0.11140  0.71490  0.50000  Biso   1.000  H 
  C310     1.0000 0.24200  0.67950  0.50000  Biso   1.000  C 
  H306     1.0000 0.21490  0.61140  0.50000  Biso   1.000  H 
  C311     1.0000 0.23070  0.73070  0.50000  Biso   1.000  C 
  C312     1.0000 0.26930  0.76930  0.50000  Biso   1.000  C 
  H307     1.0000 0.16950  0.77510  0.50000  Biso   1.000  H 
  C313     1.0000 0.25800  0.82050  0.50000  Biso   1.000  C 
  H308     1.0000 0.27510  0.66950  0.50000  Biso   1.000  H 
  C314     1.0000 0.32050  0.75800  0.50000  Biso   1.000  C 
  C315     1.0000 0.29420  0.85530  0.50000  Biso   1.000  C 
  N17      1.0000 0.20605  0.83991  0.48376  Biso   1.000  N 
  C316     1.0000 0.35530  0.79420  0.50000  Biso   1.000  C 
  H309     1.0000 0.33050  0.72490  0.50000  Biso   1.000  H 
  C317     1.0000 0.34350  0.84350  0.50000  Biso   1.000  C 
  C318     1.0000 0.38280  0.88280  0.50000  Biso   1.000  C 
  H310     1.0000 0.28510  0.88860  0.50000  Biso   1.000  H 
  H311     1.0000 0.38860  0.78510  0.50000  Biso   1.000  H 
  O99      1.0000 0.36740  0.92810  0.50000  Biso   1.000  O 
  O100     1.0000 0.42810  0.86740  0.50000  Biso   1.000  O 
  H312     1.0000 0.19121  0.86266  0.51180  Biso   1.000  H 
  C319     1.0000 0.20274  0.86456  0.43466  Biso   1.000  C 
  C320     1.0000 0.14854  0.88607  0.42568  Biso   1.000  C 
  C321     1.0000 0.14110  0.91454  0.37620  Biso   1.000  C 
  H313     1.0000 0.17832  0.91704  0.35783  Biso   1.000  H 
  C322     1.0000 0.11980  0.96848  0.38239  Biso   1.000  C 
  H314     1.0000 0.11635  0.89254  0.35118  Biso   1.000  H 
  H315     1.0000 0.21286  0.83744  0.40517  Biso   1.000  H 
  H316     1.0000 0.22983  0.89571  0.43361  Biso   1.000  H 
  H317     1.0000 0.14103  0.91242  0.45657  Biso   1.000  H 
  H318     1.0000 0.11942  0.85709  0.42725  Biso   1.000  H 
  H319     1.0000 0.15271  0.99462  0.38370  Biso   1.000  H 
  H320     1.0000 0.09855  0.97333  0.41792  Biso   1.000  H 
  C323     1.0000 0.08286  0.98559  0.34063  Biso   1.000  C 
  H321     1.0000 0.07497  0.95799  0.31044  Biso   1.000  H 
  H322     1.0000 0.09591  0.02040  0.32351  Biso   1.000  H 
  H323     1.0000 0.04714  0.99582  0.35878  Biso   1.000  H 
  O101     1.0000 0.07190  0.36740  0.50000  Biso   1.000  O 
  C324     1.0000 0.11720  0.38280  0.50000  Biso   1.000  C 
  O102     1.0000 0.13260  0.42810  0.50000  Biso   1.000  O 
  C325     1.0000 0.15650  0.34350  0.50000  Biso   1.000  C 
  C326     1.0000 0.14470  0.29420  0.50000  Biso   1.000  C 
  C327     1.0000 0.20580  0.35530  0.50000  Biso   1.000  C 
  C328     1.0000 0.17950  0.25800  0.50000  Biso   1.000  C 
  H324     1.0000 0.11140  0.28510  0.50000  Biso   1.000  H 
  C329     1.0000 0.24200  0.32050  0.50000  Biso   1.000  C 
  H325     1.0000 0.21490  0.38860  0.50000  Biso   1.000  H 
  C330     1.0000 0.23070  0.26930  0.50000  Biso   1.000  C 
  C331     1.0000 0.26930  0.23070  0.50000  Biso   1.000  C 
  H326     1.0000 0.16950  0.22490  0.50000  Biso   1.000  H 
  C332     1.0000 0.25800  0.17950  0.50000  Biso   1.000  C 
  H327     1.0000 0.27510  0.33050  0.50000  Biso   1.000  H 
  C333     1.0000 0.32050  0.24200  0.50000  Biso   1.000  C 
  C334     1.0000 0.29420  0.14470  0.50000  Biso   1.000  C 
  N18      1.0000 0.20601  0.16003  0.51608  Biso   1.000  N 
  C335     1.0000 0.35530  0.20580  0.50000  Biso   1.000  C 
  H328     1.0000 0.33050  0.27510  0.50000  Biso   1.000  H 
  C336     1.0000 0.34350  0.15650  0.50000  Biso   1.000  C 
  C337     1.0000 0.38280  0.11720  0.50000  Biso   1.000  C 
  H329     1.0000 0.28510  0.11140  0.50000  Biso   1.000  H 
  H330     1.0000 0.38860  0.21490  0.50000  Biso   1.000  H 
  O103     1.0000 0.36740  0.07190  0.50000  Biso   1.000  O 
  O104     1.0000 0.42810  0.13260  0.50000  Biso   1.000  O 
  H331     1.0000 0.19132  0.13708  0.48810  Biso   1.000  H 
  C338     1.0000 0.20275  0.13550  0.56523  Biso   1.000  C 
  C339     1.0000 0.14841  0.11427  0.57462  Biso   1.000  C 
  C340     1.0000 0.14141  0.08559  0.62411  Biso   1.000  C 
  H332     1.0000 0.17879  0.08295  0.64210  Biso   1.000  H 
  C341     1.0000 0.12001  0.03173  0.61804  Biso   1.000  C 
  H333     1.0000 0.11697  0.10746  0.64950  Biso   1.000  H 
  H334     1.0000 0.21328  0.16262  0.59462  Biso   1.000  H 
  H335     1.0000 0.22972  0.10424  0.56618  Biso   1.000  H 
  H336     1.0000 0.14030  0.08825  0.54362  Biso   1.000  H 
  H337     1.0000 0.11946  0.14349  0.57369  Biso   1.000  H 
  H338     1.0000 0.15270  0.00529  0.61682  Biso   1.000  H 
  H339     1.0000 0.09886  0.02710  0.58247  Biso   1.000  H 
  C342     1.0000 0.08264  0.01482  0.65968  Biso   1.000  C 
  H340     1.0000 0.07502  0.04250  0.68990  Biso   1.000  H 
  H341     1.0000 0.09502  0.97964  0.67675  Biso   1.000  H 
  H342     1.0000 0.04677  0.00546  0.64132  Biso   1.000  H 
  O105     1.0000 0.92810  0.36740  0.50000  Biso   1.000  O 
  C343     1.0000 0.88280  0.38280  0.50000  Biso   1.000  C 
  O106     1.0000 0.86740  0.42810  0.50000  Biso   1.000  O 
  C344     1.0000 0.84350  0.34350  0.50000  Biso   1.000  C 
  C345     1.0000 0.85530  0.29420  0.50000  Biso   1.000  C 
  C346     1.0000 0.79420  0.35530  0.50000  Biso   1.000  C 
  C347     1.0000 0.82050  0.25800  0.50000  Biso   1.000  C 
  H343     1.0000 0.88860  0.28510  0.50000  Biso   1.000  H 
  C348     1.0000 0.75800  0.32050  0.50000  Biso   1.000  C 
  H344     1.0000 0.78510  0.38860  0.50000  Biso   1.000  H 
  C349     1.0000 0.76930  0.26930  0.50000  Biso   1.000  C 
  C350     1.0000 0.73070  0.23070  0.50000  Biso   1.000  C 
  H345     1.0000 0.83050  0.22490  0.50000  Biso   1.000  H 
  C351     1.0000 0.74200  0.17950  0.50000  Biso   1.000  C 
  H346     1.0000 0.72490  0.33050  0.50000  Biso   1.000  H 
  C352     1.0000 0.67950  0.24200  0.50000  Biso   1.000  C 
  C353     1.0000 0.70580  0.14470  0.50000  Biso   1.000  C 
  N19      1.0000 0.79394  0.16010  0.48373  Biso   1.000  N 
  C354     1.0000 0.64470  0.20580  0.50000  Biso   1.000  C 
  H347     1.0000 0.66950  0.27510  0.50000  Biso   1.000  H 
  C355     1.0000 0.65650  0.15650  0.50000  Biso   1.000  C 
  C356     1.0000 0.61720  0.11720  0.50000  Biso   1.000  C 
  H348     1.0000 0.71490  0.11140  0.50000  Biso   1.000  H 
  H349     1.0000 0.61140  0.21490  0.50000  Biso   1.000  H 
  O107     1.0000 0.63260  0.07190  0.50000  Biso   1.000  O 
  O108     1.0000 0.57190  0.13260  0.50000  Biso   1.000  O 
  H350     1.0000 0.80875  0.13729  0.51173  Biso   1.000  H 
  C357     1.0000 0.79721  0.13550  0.43460  Biso   1.000  C 
  C358     1.0000 0.85135  0.11382  0.42567  Biso   1.000  C 
  C359     1.0000 0.85884  0.08550  0.37610  Biso   1.000  C 
  H351     1.0000 0.82159  0.08290  0.35782  Biso   1.000  H 
  C360     1.0000 0.88030  0.03161  0.38218  Biso   1.000  C 
  H352     1.0000 0.88345  0.10766  0.35109  Biso   1.000  H 
  H353     1.0000 0.78723  0.16272  0.40515  Biso   1.000  H 
  H354     1.0000 0.77000  0.10446  0.43346  Biso   1.000  H 
  H355     1.0000 0.85862  0.08733  0.45650  Biso   1.000  H 
  H356     1.0000 0.88057  0.14268  0.42744  Biso   1.000  H 
  H357     1.0000 0.84748  0.00536  0.38351  Biso   1.000  H 
  H358     1.0000 0.90157  0.02679  0.41771  Biso   1.000  H 
  C361     1.0000 0.91731  0.01466  0.34039  Biso   1.000  C 
  H359     1.0000 0.92557  0.04253  0.31055  Biso   1.000  H 
  H360     1.0000 0.90404  0.98015  0.32283  Biso   1.000  H 
  H361     1.0000 0.95286  0.00385  0.35856  Biso   1.000  H 
  O109     1.0000 0.92810  0.63260  0.50000  Biso   1.000  O 
  C362     1.0000 0.88280  0.61720  0.50000  Biso   1.000  C 
  O110     1.0000 0.86740  0.57190  0.50000  Biso   1.000  O 
  C363     1.0000 0.84350  0.65650  0.50000  Biso   1.000  C 
  C364     1.0000 0.85530  0.70580  0.50000  Biso   1.000  C 
  C365     1.0000 0.79420  0.64470  0.50000  Biso   1.000  C 
  C366     1.0000 0.82050  0.74200  0.50000  Biso   1.000  C 
  H362     1.0000 0.88860  0.71490  0.50000  Biso   1.000  H 
  C367     1.0000 0.75800  0.67950  0.50000  Biso   1.000  C 
  H363     1.0000 0.78510  0.61140  0.50000  Biso   1.000  H 
  C368     1.0000 0.76930  0.73070  0.50000  Biso   1.000  C 
  C369     1.0000 0.73070  0.76930  0.50000  Biso   1.000  C 
  H364     1.0000 0.83050  0.77510  0.50000  Biso   1.000  H 
  C370     1.0000 0.74200  0.82050  0.50000  Biso   1.000  C 
  H365     1.0000 0.72490  0.66950  0.50000  Biso   1.000  H 
  C371     1.0000 0.67950  0.75800  0.50000  Biso   1.000  C 
  C372     1.0000 0.70580  0.85530  0.50000  Biso   1.000  C 
  N20      1.0000 0.79398  0.83995  0.51612  Biso   1.000  N 
  C373     1.0000 0.64470  0.79420  0.50000  Biso   1.000  C 
  H366     1.0000 0.66950  0.72490  0.50000  Biso   1.000  H 
  C374     1.0000 0.65650  0.84350  0.50000  Biso   1.000  C 
  C375     1.0000 0.61720  0.88280  0.50000  Biso   1.000  C 
  H367     1.0000 0.71490  0.88860  0.50000  Biso   1.000  H 
  H368     1.0000 0.61140  0.78510  0.50000  Biso   1.000  H 
  O111     1.0000 0.63260  0.92810  0.50000  Biso   1.000  O 
  O112     1.0000 0.57190  0.86740  0.50000  Biso   1.000  O 
  H369     1.0000 0.80864  0.86297  0.48818  Biso   1.000  H 
  C376     1.0000 0.79720  0.86444  0.56529  Biso   1.000  C 
  C377     1.0000 0.85149  0.88582  0.57464  Biso   1.000  C 
  C378     1.0000 0.85854  0.91435  0.62421  Biso   1.000  C 
  H370     1.0000 0.82114  0.91708  0.64213  Biso   1.000  H 
  C379     1.0000 0.88008  0.96817  0.61826  Biso   1.000  C 
  H371     1.0000 0.88285  0.89233  0.64959  Biso   1.000  H 
  H372     1.0000 0.78681  0.83723  0.59465  Biso   1.000  H 
  H373     1.0000 0.77013  0.89560  0.56633  Biso   1.000  H 
  H374     1.0000 0.85937  0.91199  0.54368  Biso   1.000  H 
  H375     1.0000 0.88054  0.85671  0.57349  Biso   1.000  H 
  H376     1.0000 0.84748  0.99472  0.61704  Biso   1.000  H 
  H377     1.0000 0.90125  0.97277  0.58268  Biso   1.000  H 
  C380     1.0000 0.91753  0.98492  0.65991  Biso   1.000  C 
  H378     1.0000 0.92556  0.95695  0.68978  Biso   1.000  H 
  H379     1.0000 0.90492  0.01978  0.67747  Biso   1.000  H 
  H380     1.0000 0.95322  0.99489  0.64153  Biso   1.000  H 
  O113     1.0000 0.50000  0.07190  0.63260  Biso   1.000  O 
  C381     1.0000 0.50000  0.11720  0.61720  Biso   1.000  C 
  O114     1.0000 0.50000  0.13260  0.57190  Biso   1.000  O 
  C382     1.0000 0.50000  0.15650  0.65650  Biso   1.000  C 
  C383     1.0000 0.50000  0.14470  0.70580  Biso   1.000  C 
  C384     1.0000 0.50000  0.20580  0.64470  Biso   1.000  C 
  C385     1.0000 0.50000  0.17950  0.74200  Biso   1.000  C 
  H381     1.0000 0.50000  0.11140  0.71490  Biso   1.000  H 
  C386     1.0000 0.50000  0.24200  0.67950  Biso   1.000  C 
  H382     1.0000 0.50000  0.21490  0.61140  Biso   1.000  H 
  C387     1.0000 0.50000  0.23070  0.73070  Biso   1.000  C 
  C388     1.0000 0.50000  0.26930  0.76930  Biso   1.000  C 
  H383     1.0000 0.50000  0.16950  0.77510  Biso   1.000  H 
  C389     1.0000 0.50000  0.25800  0.82050  Biso   1.000  C 
  H384     1.0000 0.50000  0.27510  0.66950  Biso   1.000  H 
  C390     1.0000 0.50000  0.32050  0.75800  Biso   1.000  C 
  C391     1.0000 0.50000  0.29420  0.85530  Biso   1.000  C 
  N21      1.0000 0.48770  0.20595  0.83973  Biso   1.000  N 
  C392     1.0000 0.50000  0.35530  0.79420  Biso   1.000  C 
  H385     1.0000 0.50000  0.33050  0.72490  Biso   1.000  H 
  C393     1.0000 0.50000  0.34350  0.84350  Biso   1.000  C 
  C394     1.0000 0.50000  0.38280  0.88280  Biso   1.000  C 
  H386     1.0000 0.50000  0.28510  0.88860  Biso   1.000  H 
  H387     1.0000 0.50000  0.38860  0.78510  Biso   1.000  H 
  O115     1.0000 0.50000  0.36740  0.92810  Biso   1.000  O 
  O116     1.0000 0.50000  0.42810  0.86740  Biso   1.000  O 
  H388     1.0000 0.51566  0.19306  0.86446  Biso   1.000  H 
  C395     1.0000 0.43722  0.20158  0.86009  Biso   1.000  C 
  C396     1.0000 0.43820  0.20507  0.91791  Biso   1.000  C 
  C397     1.0000 0.40934  0.16319  0.94239  Biso   1.000  C 
  H389     1.0000 0.36899  0.17187  0.93739  Biso   1.000  H 
  C398     1.0000 0.42130  0.15683  0.99782  Biso   1.000  C 
  H390     1.0000 0.41854  0.12714  0.92643  Biso   1.000  H 
  H391     1.0000 0.42249  0.16412  0.84984  Biso   1.000  H 
  H392     1.0000 0.41305  0.22940  0.84004  Biso   1.000  H 
  H393     1.0000 0.42285  0.24108  0.92866  Biso   1.000  H 
  H394     1.0000 0.47670  0.20273  0.93317  Biso   1.000  H 
  H395     1.0000 0.41894  0.19486  0.01244  Biso   1.000  H 
  H396     1.0000 0.45985  0.14223  0.00283  Biso   1.000  H 
  C399     1.0000 0.38689  0.12087  0.02464  Biso   1.000  C 
  H397     1.0000 0.34780  0.13289  0.02402  Biso   1.000  H 
  H398     1.0000 0.40058  0.12121  0.06331  Biso   1.000  H 
  H399     1.0000 0.39028  0.08239  0.00958  Biso   1.000  H 
  O117     1.0000 0.50000  0.07190  0.36740  Biso   1.000  O 
  C400     1.0000 0.50000  0.11720  0.38280  Biso   1.000  C 
  O118     1.0000 0.50000  0.13260  0.42810  Biso   1.000  O 
  C401     1.0000 0.50000  0.15650  0.34350  Biso   1.000  C 
  C402     1.0000 0.50000  0.14470  0.29420  Biso   1.000  C 
  C403     1.0000 0.50000  0.20580  0.35530  Biso   1.000  C 
  C404     1.0000 0.50000  0.17950  0.25800  Biso   1.000  C 
  H400     1.0000 0.50000  0.11140  0.28510  Biso   1.000  H 
  C405     1.0000 0.50000  0.24200  0.32050  Biso   1.000  C 
  H401     1.0000 0.50000  0.21490  0.38860  Biso   1.000  H 
  C406     1.0000 0.50000  0.23070  0.26930  Biso   1.000  C 
  C407     1.0000 0.50000  0.26930  0.23070  Biso   1.000  C 
  H402     1.0000 0.50000  0.16950  0.22490  Biso   1.000  H 
  C408     1.0000 0.50000  0.25800  0.17950  Biso   1.000  C 
  H403     1.0000 0.50000  0.27510  0.33050  Biso   1.000  H 
  C409     1.0000 0.50000  0.32050  0.24200  Biso   1.000  C 
  C410     1.0000 0.50000  0.29420  0.14470  Biso   1.000  C 
  N22      1.0000 0.51230  0.20595  0.16027  Biso   1.000  N 
  C411     1.0000 0.50000  0.35530  0.20580  Biso   1.000  C 
  H404     1.0000 0.50000  0.33050  0.27510  Biso   1.000  H 
  C412     1.0000 0.50000  0.34350  0.15650  Biso   1.000  C 
  C413     1.0000 0.50000  0.38280  0.11720  Biso   1.000  C 
  H405     1.0000 0.50000  0.28510  0.11140  Biso   1.000  H 
  H406     1.0000 0.50000  0.38860  0.21490  Biso   1.000  H 
  O119     1.0000 0.50000  0.36740  0.07190  Biso   1.000  O 
  O120     1.0000 0.50000  0.42810  0.13260  Biso   1.000  O 
  H407     1.0000 0.48434  0.19306  0.13555  Biso   1.000  H 
  C414     1.0000 0.56278  0.20158  0.13991  Biso   1.000  C 
  C415     1.0000 0.56181  0.20507  0.08210  Biso   1.000  C 
  C416     1.0000 0.59066  0.16320  0.05761  Biso   1.000  C 
  H408     1.0000 0.63101  0.17188  0.06261  Biso   1.000  H 
  C417     1.0000 0.57870  0.15683  0.00218  Biso   1.000  C 
  H409     1.0000 0.58147  0.12714  0.07357  Biso   1.000  H 
  H410     1.0000 0.57752  0.16412  0.15016  Biso   1.000  H 
  H411     1.0000 0.58695  0.22940  0.15996  Biso   1.000  H 
  H412     1.0000 0.57715  0.24108  0.07134  Biso   1.000  H 
  H413     1.0000 0.52330  0.20274  0.06683  Biso   1.000  H 
  H414     1.0000 0.58107  0.19487  0.98756  Biso   1.000  H 
  H415     1.0000 0.54015  0.14224  0.99717  Biso   1.000  H 
  C418     1.0000 0.61311  0.12088  0.97536  Biso   1.000  C 
  H416     1.0000 0.65220  0.13289  0.97599  Biso   1.000  H 
  H417     1.0000 0.59943  0.12123  0.93669  Biso   1.000  H 
  H418     1.0000 0.60971  0.08239  0.99040  Biso   1.000  H 
  O121     1.0000 0.50000  0.92810  0.36740  Biso   1.000  O 
  C419     1.0000 0.50000  0.88280  0.38280  Biso   1.000  C 
  O122     1.0000 0.50000  0.86740  0.42810  Biso   1.000  O 
  C420     1.0000 0.50000  0.84350  0.34350  Biso   1.000  C 
  C421     1.0000 0.50000  0.85530  0.29420  Biso   1.000  C 
  C422     1.0000 0.50000  0.79420  0.35530  Biso   1.000  C 
  C423     1.0000 0.50000  0.82050  0.25800  Biso   1.000  C 
  H419     1.0000 0.50000  0.88860  0.28510  Biso   1.000  H 
  C424     1.0000 0.50000  0.75800  0.32050  Biso   1.000  C 
  H420     1.0000 0.50000  0.78510  0.38860  Biso   1.000  H 
  C425     1.0000 0.50000  0.76930  0.26930  Biso   1.000  C 
  C426     1.0000 0.50000  0.73070  0.23070  Biso   1.000  C 
  H421     1.0000 0.50000  0.83050  0.22490  Biso   1.000  H 
  C427     1.0000 0.50000  0.74200  0.17950  Biso   1.000  C 
  H422     1.0000 0.50000  0.72490  0.33050  Biso   1.000  H 
  C428     1.0000 0.50000  0.67950  0.24200  Biso   1.000  C 
  C429     1.0000 0.50000  0.70580  0.14470  Biso   1.000  C 
  N23      1.0000 0.48770  0.79405  0.16027  Biso   1.000  N 
  C430     1.0000 0.50000  0.64470  0.20580  Biso   1.000  C 
  H423     1.0000 0.50000  0.66950  0.27510  Biso   1.000  H 
  C431     1.0000 0.50000  0.65650  0.15650  Biso   1.000  C 
  C432     1.0000 0.50000  0.61720  0.11720  Biso   1.000  C 
  H424     1.0000 0.50000  0.71490  0.11140  Biso   1.000  H 
  H425     1.0000 0.50000  0.61140  0.21490  Biso   1.000  H 
  O123     1.0000 0.50000  0.63260  0.07190  Biso   1.000  O 
  O124     1.0000 0.50000  0.57190  0.13260  Biso   1.000  O 
  H426     1.0000 0.51566  0.80694  0.13555  Biso   1.000  H 
  C433     1.0000 0.43722  0.79842  0.13991  Biso   1.000  C 
  C434     1.0000 0.43820  0.79493  0.08209  Biso   1.000  C 
  C435     1.0000 0.40934  0.83681  0.05761  Biso   1.000  C 
  H427     1.0000 0.36899  0.82813  0.06261  Biso   1.000  H 
  C436     1.0000 0.42130  0.84317  0.00218  Biso   1.000  C 
  H428     1.0000 0.41854  0.87287  0.07357  Biso   1.000  H 
  H429     1.0000 0.42249  0.83588  0.15016  Biso   1.000  H 
  H430     1.0000 0.41305  0.77061  0.15996  Biso   1.000  H 
  H431     1.0000 0.42285  0.75892  0.07134  Biso   1.000  H 
  H432     1.0000 0.47671  0.79727  0.06683  Biso   1.000  H 
  H433     1.0000 0.41895  0.80514  0.98756  Biso   1.000  H 
  H434     1.0000 0.45985  0.85778  0.99717  Biso   1.000  H 
  C437     1.0000 0.38689  0.87913  0.97536  Biso   1.000  C 
  H435     1.0000 0.34780  0.86711  0.97597  Biso   1.000  H 
  H436     1.0000 0.40058  0.87880  0.93669  Biso   1.000  H 
  H437     1.0000 0.39027  0.91761  0.99042  Biso   1.000  H 
  O125     1.0000 0.50000  0.92810  0.63260  Biso   1.000  O 
  C438     1.0000 0.50000  0.88280  0.61720  Biso   1.000  C 
  O126     1.0000 0.50000  0.86740  0.57190  Biso   1.000  O 
  C439     1.0000 0.50000  0.84350  0.65650  Biso   1.000  C 
  C440     1.0000 0.50000  0.85530  0.70580  Biso   1.000  C 
  C441     1.0000 0.50000  0.79420  0.64470  Biso   1.000  C 
  C442     1.0000 0.50000  0.82050  0.74200  Biso   1.000  C 
  H438     1.0000 0.50000  0.88860  0.71490  Biso   1.000  H 
  C443     1.0000 0.50000  0.75800  0.67950  Biso   1.000  C 
  H439     1.0000 0.50000  0.78510  0.61140  Biso   1.000  H 
  C444     1.0000 0.50000  0.76930  0.73070  Biso   1.000  C 
  C445     1.0000 0.50000  0.73070  0.76930  Biso   1.000  C 
  H440     1.0000 0.50000  0.83050  0.77510  Biso   1.000  H 
  C446     1.0000 0.50000  0.74200  0.82050  Biso   1.000  C 
  H441     1.0000 0.50000  0.72490  0.66950  Biso   1.000  H 
  C447     1.0000 0.50000  0.67950  0.75800  Biso   1.000  C 
  C448     1.0000 0.50000  0.70580  0.85530  Biso   1.000  C 
  N24      1.0000 0.51230  0.79405  0.83973  Biso   1.000  N 
  C449     1.0000 0.50000  0.64470  0.79420  Biso   1.000  C 
  H442     1.0000 0.50000  0.66950  0.72490  Biso   1.000  H 
  C450     1.0000 0.50000  0.65650  0.84350  Biso   1.000  C 
  C451     1.0000 0.50000  0.61720  0.88280  Biso   1.000  C 
  H443     1.0000 0.50000  0.71490  0.88860  Biso   1.000  H 
  H444     1.0000 0.50000  0.61140  0.78510  Biso   1.000  H 
  O127     1.0000 0.50000  0.63260  0.92810  Biso   1.000  O 
  O128     1.0000 0.50000  0.57190  0.86740  Biso   1.000  O 
  H445     1.0000 0.48434  0.80694  0.86446  Biso   1.000  H 
  C452     1.0000 0.56278  0.79842  0.86009  Biso   1.000  C 
  C453     1.0000 0.56180  0.79493  0.91791  Biso   1.000  C 
  C454     1.0000 0.59066  0.83680  0.94239  Biso   1.000  C 
  H446     1.0000 0.63101  0.82813  0.93738  Biso   1.000  H 
  C455     1.0000 0.57870  0.84317  0.99782  Biso   1.000  C 
  H447     1.0000 0.58147  0.87286  0.92643  Biso   1.000  H 
  H448     1.0000 0.57752  0.83588  0.84984  Biso   1.000  H 
  H449     1.0000 0.58695  0.77060  0.84004  Biso   1.000  H 
  H450     1.0000 0.57715  0.75892  0.92866  Biso   1.000  H 
  H451     1.0000 0.52330  0.79726  0.93317  Biso   1.000  H 
  H452     1.0000 0.58106  0.80513  0.01244  Biso   1.000  H 
  H453     1.0000 0.54015  0.85777  0.00283  Biso   1.000  H 
  C456     1.0000 0.61311  0.87912  0.02464  Biso   1.000  C 
  H454     1.0000 0.65220  0.86711  0.02402  Biso   1.000  H 
  H455     1.0000 0.59942  0.87878  0.06331  Biso   1.000  H 
  H456     1.0000 0.60972  0.91761  0.00959  Biso   1.000  H 
