data_image0
_cell_length_a       26.896
_cell_length_b       26.896
_cell_length_c       26.896
_cell_angle_alpha    90
_cell_angle_beta     90
_cell_angle_gamma    90

_symmetry_space_group_name_H-M    "P 1"
_symmetry_int_tables_number       1

loop_
  _symmetry_equiv_pos_as_xyz
  'x, y, z'

loop_
  _atom_site_label
  _atom_site_occupancy
  _atom_site_fract_x
  _atom_site_fract_y
  _atom_site_fract_z
  _atom_site_thermal_displace_type
  _atom_site_B_iso_or_equiv
  _atom_site_type_symbol
  Zr1      1.0000 0.09204  0.00000  0.00000  Biso   1.000  Zr
  Zr2      1.0000 0.90796  0.00000  0.00000  Biso   1.000  Zr
  Zr3      1.0000 0.00000  0.09204  0.00000  Biso   1.000  Zr
  Zr4      1.0000 0.00000  0.90796  0.00000  Biso   1.000  Zr
  Zr5      1.0000 0.00000  0.00000  0.09204  Biso   1.000  Zr
  Zr6      1.0000 0.00000  0.00000  0.90796  Biso   1.000  Zr
  Zr7      1.0000 0.09204  0.50000  0.50000  Biso   1.000  Zr
  Zr8      1.0000 0.90796  0.50000  0.50000  Biso   1.000  Zr
  Zr9      1.0000 0.00000  0.59204  0.50000  Biso   1.000  Zr
  Zr10     1.0000 0.00000  0.40796  0.50000  Biso   1.000  Zr
  Zr11     1.0000 0.00000  0.50000  0.59204  Biso   1.000  Zr
  Zr12     1.0000 0.00000  0.50000  0.40796  Biso   1.000  Zr
  Zr13     1.0000 0.59204  0.00000  0.50000  Biso   1.000  Zr
  Zr14     1.0000 0.40796  0.00000  0.50000  Biso   1.000  Zr
  Zr15     1.0000 0.50000  0.09204  0.50000  Biso   1.000  Zr
  Zr16     1.0000 0.50000  0.90796  0.50000  Biso   1.000  Zr
  Zr17     1.0000 0.50000  0.00000  0.59204  Biso   1.000  Zr
  Zr18     1.0000 0.50000  0.00000  0.40796  Biso   1.000  Zr
  Zr19     1.0000 0.59204  0.50000  0.00000  Biso   1.000  Zr
  Zr20     1.0000 0.40796  0.50000  0.00000  Biso   1.000  Zr
  Zr21     1.0000 0.50000  0.59204  0.00000  Biso   1.000  Zr
  Zr22     1.0000 0.50000  0.40796  0.00000  Biso   1.000  Zr
  Zr23     1.0000 0.50000  0.50000  0.09204  Biso   1.000  Zr
  Zr24     1.0000 0.50000  0.50000  0.90796  Biso   1.000  Zr
  O1       1.0000 0.04540  0.04540  0.04540  Biso   1.000  O 
  O2       1.0000 0.95460  0.95460  0.04540  Biso   1.000  O 
  O3       1.0000 0.95460  0.04540  0.95460  Biso   1.000  O 
  O4       1.0000 0.04540  0.95460  0.95460  Biso   1.000  O 
  O5       1.0000 0.04540  0.04540  0.95460  Biso   1.000  O 
  O6       1.0000 0.95460  0.95460  0.95460  Biso   1.000  O 
  O7       1.0000 0.04540  0.95460  0.04540  Biso   1.000  O 
  O8       1.0000 0.95460  0.04540  0.04540  Biso   1.000  O 
  O9       1.0000 0.04540  0.54540  0.54540  Biso   1.000  O 
  O10      1.0000 0.95460  0.45460  0.54540  Biso   1.000  O 
  O11      1.0000 0.95460  0.54540  0.45460  Biso   1.000  O 
  O12      1.0000 0.04540  0.45460  0.45460  Biso   1.000  O 
  O13      1.0000 0.04540  0.54540  0.45460  Biso   1.000  O 
  O14      1.0000 0.95460  0.45460  0.45460  Biso   1.000  O 
  O15      1.0000 0.04540  0.45460  0.54540  Biso   1.000  O 
  O16      1.0000 0.95460  0.54540  0.54540  Biso   1.000  O 
  O17      1.0000 0.54540  0.04540  0.54540  Biso   1.000  O 
  O18      1.0000 0.45460  0.95460  0.54540  Biso   1.000  O 
  O19      1.0000 0.45460  0.04540  0.45460  Biso   1.000  O 
  O20      1.0000 0.54540  0.95460  0.45460  Biso   1.000  O 
  O21      1.0000 0.54540  0.04540  0.45460  Biso   1.000  O 
  O22      1.0000 0.45460  0.95460  0.45460  Biso   1.000  O 
  O23      1.0000 0.54540  0.95460  0.54540  Biso   1.000  O 
  O24      1.0000 0.45460  0.04540  0.54540  Biso   1.000  O 
  O25      1.0000 0.54540  0.54540  0.04540  Biso   1.000  O 
  O26      1.0000 0.45460  0.45460  0.04540  Biso   1.000  O 
  O27      1.0000 0.45460  0.54540  0.95460  Biso   1.000  O 
  O28      1.0000 0.54540  0.45460  0.95460  Biso   1.000  O 
  O29      1.0000 0.54540  0.54540  0.95460  Biso   1.000  O 
  O30      1.0000 0.45460  0.45460  0.95460  Biso   1.000  O 
  O31      1.0000 0.54540  0.45460  0.04540  Biso   1.000  O 
  O32      1.0000 0.45460  0.54540  0.04540  Biso   1.000  O 
  O33      1.0000 0.13260  0.00000  0.07190  Biso   1.000  O 
  C1       1.0000 0.11720  0.00000  0.11720  Biso   1.000  C 
  O34      1.0000 0.07190  0.00000  0.13260  Biso   1.000  O 
  C2       1.0000 0.15650  0.00000  0.15650  Biso   1.000  C 
  C3       1.0000 0.20580  0.00000  0.14470  Biso   1.000  C 
  C4       1.0000 0.14470  0.00000  0.20580  Biso   1.000  C 
  C5       1.0000 0.24200  0.00000  0.17950  Biso   1.000  C 
  H1       1.0000 0.21490  0.00000  0.11140  Biso   1.000  H 
  C6       1.0000 0.17950  0.00000  0.24200  Biso   1.000  C 
  H2       1.0000 0.11140  0.00000  0.21490  Biso   1.000  H 
  C7       1.0000 0.23070  0.00000  0.23070  Biso   1.000  C 
  C8       1.0000 0.26930  0.00000  0.26930  Biso   1.000  C 
  H3       1.0000 0.27510  0.00000  0.16950  Biso   1.000  H 
  C9       1.0000 0.32050  0.00000  0.25800  Biso   1.000  C 
  N1       1.0000 0.15941  0.00001  0.29462  Biso   1.000  N 
  C10      1.0000 0.25800  0.00000  0.32050  Biso   1.000  C 
  C11      1.0000 0.35530  0.00000  0.29420  Biso   1.000  C 
  N2       1.0000 0.33993  0.00107  0.20528  Biso   1.000  N 
  C12      1.0000 0.29420  0.00000  0.35530  Biso   1.000  C 
  H4       1.0000 0.22490  0.00000  0.33050  Biso   1.000  H 
  C13      1.0000 0.34350  0.00000  0.34350  Biso   1.000  C 
  C14      1.0000 0.38280  0.00000  0.38280  Biso   1.000  C 
  H5       1.0000 0.38860  0.00000  0.28510  Biso   1.000  H 
  H6       1.0000 0.28510  0.00000  0.38860  Biso   1.000  H 
  O35      1.0000 0.42810  0.00000  0.36740  Biso   1.000  O 
  O36      1.0000 0.36740  0.00000  0.42810  Biso   1.000  O 
  N3       1.0000 0.38401  0.00026  0.19326  Biso   1.000  N 
  N4       1.0000 0.42622  0.99963  0.17967  Biso   1.000  N 
  N5       1.0000 0.11431  0.00000  0.30025  Biso   1.000  N 
  N6       1.0000 0.07039  1.00000  0.30536  Biso   1.000  N 
  O37      1.0000 0.86740  0.00000  0.07190  Biso   1.000  O 
  C15      1.0000 0.88280  0.00000  0.11720  Biso   1.000  C 
  O38      1.0000 0.92810  0.00000  0.13260  Biso   1.000  O 
  C16      1.0000 0.84350  0.00000  0.15650  Biso   1.000  C 
  C17      1.0000 0.79420  0.00000  0.14470  Biso   1.000  C 
  C18      1.0000 0.85530  0.00000  0.20580  Biso   1.000  C 
  C19      1.0000 0.75800  0.00000  0.17950  Biso   1.000  C 
  H7       1.0000 0.78510  0.00000  0.11140  Biso   1.000  H 
  C20      1.0000 0.82050  0.00000  0.24200  Biso   1.000  C 
  H8       1.0000 0.88860  0.00000  0.21490  Biso   1.000  H 
  C21      1.0000 0.76930  0.00000  0.23070  Biso   1.000  C 
  C22      1.0000 0.73070  0.00000  0.26930  Biso   1.000  C 
  H9       1.0000 0.72490  0.00000  0.16950  Biso   1.000  H 
  C23      1.0000 0.67950  0.00000  0.25800  Biso   1.000  C 
  N7       1.0000 0.84059  0.00001  0.29462  Biso   1.000  N 
  C24      1.0000 0.74200  0.00000  0.32050  Biso   1.000  C 
  C25      1.0000 0.64470  0.00000  0.29420  Biso   1.000  C 
  N8       1.0000 0.66008  0.00107  0.20528  Biso   1.000  N 
  C26      1.0000 0.70580  0.00000  0.35530  Biso   1.000  C 
  H10      1.0000 0.77510  0.00000  0.33050  Biso   1.000  H 
  C27      1.0000 0.65650  0.00000  0.34350  Biso   1.000  C 
  C28      1.0000 0.61720  0.00000  0.38280  Biso   1.000  C 
  H11      1.0000 0.61140  0.00000  0.28510  Biso   1.000  H 
  H12      1.0000 0.71490  0.00000  0.38860  Biso   1.000  H 
  O39      1.0000 0.57190  0.00000  0.36740  Biso   1.000  O 
  O40      1.0000 0.63260  0.00000  0.42810  Biso   1.000  O 
  N9       1.0000 0.61599  0.00026  0.19326  Biso   1.000  N 
  N10      1.0000 0.57378  0.99963  0.17967  Biso   1.000  N 
  N11      1.0000 0.88569  0.00000  0.30025  Biso   1.000  N 
  N12      1.0000 0.92961  1.00000  0.30536  Biso   1.000  N 
  O41      1.0000 0.86740  0.00000  0.92810  Biso   1.000  O 
  C29      1.0000 0.88280  0.00000  0.88280  Biso   1.000  C 
  O42      1.0000 0.92810  0.00000  0.86740  Biso   1.000  O 
  C30      1.0000 0.84350  0.00000  0.84350  Biso   1.000  C 
  C31      1.0000 0.79420  0.00000  0.85530  Biso   1.000  C 
  C32      1.0000 0.85530  0.00000  0.79420  Biso   1.000  C 
  C33      1.0000 0.75800  0.00000  0.82050  Biso   1.000  C 
  H13      1.0000 0.78510  0.00000  0.88860  Biso   1.000  H 
  C34      1.0000 0.82050  0.00000  0.75800  Biso   1.000  C 
  H14      1.0000 0.88860  0.00000  0.78510  Biso   1.000  H 
  C35      1.0000 0.76930  0.00000  0.76930  Biso   1.000  C 
  C36      1.0000 0.73070  0.00000  0.73070  Biso   1.000  C 
  H15      1.0000 0.72490  0.00000  0.83050  Biso   1.000  H 
  C37      1.0000 0.67950  0.00000  0.74200  Biso   1.000  C 
  N13      1.0000 0.84059  0.00001  0.70538  Biso   1.000  N 
  C38      1.0000 0.74200  0.00000  0.67950  Biso   1.000  C 
  C39      1.0000 0.64470  0.00000  0.70580  Biso   1.000  C 
  N14      1.0000 0.66008  0.00139  0.79471  Biso   1.000  N 
  C40      1.0000 0.70580  0.00000  0.64470  Biso   1.000  C 
  H16      1.0000 0.77510  0.00000  0.66950  Biso   1.000  H 
  C41      1.0000 0.65650  0.00000  0.65650  Biso   1.000  C 
  C42      1.0000 0.61720  0.00000  0.61720  Biso   1.000  C 
  H17      1.0000 0.61140  0.00000  0.71490  Biso   1.000  H 
  H18      1.0000 0.71490  0.00000  0.61140  Biso   1.000  H 
  O43      1.0000 0.57190  0.00000  0.63260  Biso   1.000  O 
  O44      1.0000 0.63260  0.00000  0.57190  Biso   1.000  O 
  N15      1.0000 0.61599  0.00034  0.80674  Biso   1.000  N 
  N16      1.0000 0.57379  0.99952  0.82033  Biso   1.000  N 
  N17      1.0000 0.88569  0.00000  0.69975  Biso   1.000  N 
  N18      1.0000 0.92961  1.00000  0.69464  Biso   1.000  N 
  O45      1.0000 0.13260  0.00000  0.92810  Biso   1.000  O 
  C43      1.0000 0.11720  0.00000  0.88280  Biso   1.000  C 
  O46      1.0000 0.07190  0.00000  0.86740  Biso   1.000  O 
  C44      1.0000 0.15650  0.00000  0.84350  Biso   1.000  C 
  C45      1.0000 0.20580  0.00000  0.85530  Biso   1.000  C 
  C46      1.0000 0.14470  0.00000  0.79420  Biso   1.000  C 
  C47      1.0000 0.24200  0.00000  0.82050  Biso   1.000  C 
  H19      1.0000 0.21490  0.00000  0.88860  Biso   1.000  H 
  C48      1.0000 0.17950  0.00000  0.75800  Biso   1.000  C 
  H20      1.0000 0.11140  0.00000  0.78510  Biso   1.000  H 
  C49      1.0000 0.23070  0.00000  0.76930  Biso   1.000  C 
  C50      1.0000 0.26930  0.00000  0.73070  Biso   1.000  C 
  H21      1.0000 0.27510  0.00000  0.83050  Biso   1.000  H 
  C51      1.0000 0.32050  0.00000  0.74200  Biso   1.000  C 
  N19      1.0000 0.15941  0.00001  0.70538  Biso   1.000  N 
  C52      1.0000 0.25800  0.00000  0.67950  Biso   1.000  C 
  C53      1.0000 0.35530  0.00000  0.70580  Biso   1.000  C 
  N20      1.0000 0.33992  0.00139  0.79471  Biso   1.000  N 
  C54      1.0000 0.29420  0.00000  0.64470  Biso   1.000  C 
  H22      1.0000 0.22490  0.00000  0.66950  Biso   1.000  H 
  C55      1.0000 0.34350  0.00000  0.65650  Biso   1.000  C 
  C56      1.0000 0.38280  0.00000  0.61720  Biso   1.000  C 
  H23      1.0000 0.38860  0.00000  0.71490  Biso   1.000  H 
  H24      1.0000 0.28510  0.00000  0.61140  Biso   1.000  H 
  O47      1.0000 0.42810  0.00000  0.63260  Biso   1.000  O 
  O48      1.0000 0.36740  0.00000  0.57190  Biso   1.000  O 
  N21      1.0000 0.38401  0.00034  0.80674  Biso   1.000  N 
  N22      1.0000 0.42621  0.99952  0.82033  Biso   1.000  N 
  N23      1.0000 0.11431  0.00000  0.69975  Biso   1.000  N 
  N24      1.0000 0.07039  1.00000  0.69464  Biso   1.000  N 
  O49      1.0000 0.07190  0.13260  0.00000  Biso   1.000  O 
  C57      1.0000 0.11720  0.11720  0.00000  Biso   1.000  C 
  O50      1.0000 0.13260  0.07190  0.00000  Biso   1.000  O 
  C58      1.0000 0.15650  0.15650  0.00000  Biso   1.000  C 
  C59      1.0000 0.14470  0.20580  0.00000  Biso   1.000  C 
  C60      1.0000 0.20580  0.14470  0.00000  Biso   1.000  C 
  C61      1.0000 0.17950  0.24200  0.00000  Biso   1.000  C 
  H25      1.0000 0.11140  0.21490  0.00000  Biso   1.000  H 
  C62      1.0000 0.24200  0.17950  0.00000  Biso   1.000  C 
  H26      1.0000 0.21490  0.11140  0.00000  Biso   1.000  H 
  C63      1.0000 0.23070  0.23070  0.00000  Biso   1.000  C 
  C64      1.0000 0.26930  0.26930  0.00000  Biso   1.000  C 
  H27      1.0000 0.16950  0.27510  0.00000  Biso   1.000  H 
  C65      1.0000 0.25800  0.32050  0.00000  Biso   1.000  C 
  N25      1.0000 0.29462  0.15941  0.00001  Biso   1.000  N 
  C66      1.0000 0.32050  0.25800  0.00000  Biso   1.000  C 
  C67      1.0000 0.29420  0.35530  0.00000  Biso   1.000  C 
  N26      1.0000 0.20527  0.33931  0.99996  Biso   1.000  N 
  C68      1.0000 0.35530  0.29420  0.00000  Biso   1.000  C 
  H28      1.0000 0.33050  0.22490  0.00000  Biso   1.000  H 
  C69      1.0000 0.34350  0.34350  0.00000  Biso   1.000  C 
  C70      1.0000 0.38280  0.38280  0.00000  Biso   1.000  C 
  H29      1.0000 0.28510  0.38860  0.00000  Biso   1.000  H 
  H30      1.0000 0.38860  0.28510  0.00000  Biso   1.000  H 
  O51      1.0000 0.36740  0.42810  0.00000  Biso   1.000  O 
  O52      1.0000 0.42810  0.36740  0.00000  Biso   1.000  O 
  N27      1.0000 0.19256  0.38310  0.99999  Biso   1.000  N 
  N28      1.0000 0.17837  0.42512  0.00001  Biso   1.000  N 
  N29      1.0000 0.30025  0.11431  0.00000  Biso   1.000  N 
  N30      1.0000 0.30536  0.07039  0.99999  Biso   1.000  N 
  O53      1.0000 0.07190  0.86740  0.00000  Biso   1.000  O 
  C71      1.0000 0.11720  0.88280  0.00000  Biso   1.000  C 
  O54      1.0000 0.13260  0.92810  0.00000  Biso   1.000  O 
  C72      1.0000 0.15650  0.84350  0.00000  Biso   1.000  C 
  C73      1.0000 0.14470  0.79420  0.00000  Biso   1.000  C 
  C74      1.0000 0.20580  0.85530  0.00000  Biso   1.000  C 
  C75      1.0000 0.17950  0.75800  0.00000  Biso   1.000  C 
  H31      1.0000 0.11140  0.78510  0.00000  Biso   1.000  H 
  C76      1.0000 0.24200  0.82050  0.00000  Biso   1.000  C 
  H32      1.0000 0.21490  0.88860  0.00000  Biso   1.000  H 
  C77      1.0000 0.23070  0.76930  0.00000  Biso   1.000  C 
  C78      1.0000 0.26930  0.73070  0.00000  Biso   1.000  C 
  H33      1.0000 0.16950  0.72490  0.00000  Biso   1.000  H 
  C79      1.0000 0.25800  0.67950  0.00000  Biso   1.000  C 
  N31      1.0000 0.29462  0.84059  0.00001  Biso   1.000  N 
  C80      1.0000 0.32050  0.74200  0.00000  Biso   1.000  C 
  C81      1.0000 0.29420  0.64470  0.00000  Biso   1.000  C 
  N32      1.0000 0.20527  0.66069  0.00011  Biso   1.000  N 
  C82      1.0000 0.35530  0.70580  0.00000  Biso   1.000  C 
  H34      1.0000 0.33050  0.77510  0.00000  Biso   1.000  H 
  C83      1.0000 0.34350  0.65650  0.00000  Biso   1.000  C 
  C84      1.0000 0.38280  0.61720  0.00000  Biso   1.000  C 
  H35      1.0000 0.28510  0.61140  0.00000  Biso   1.000  H 
  H36      1.0000 0.38860  0.71490  0.00000  Biso   1.000  H 
  O55      1.0000 0.36740  0.57190  0.00000  Biso   1.000  O 
  O56      1.0000 0.42810  0.63260  0.00000  Biso   1.000  O 
  N33      1.0000 0.19256  0.61690  0.00004  Biso   1.000  N 
  N34      1.0000 0.17837  0.57488  0.99998  Biso   1.000  N 
  N35      1.0000 0.30025  0.88569  0.00000  Biso   1.000  N 
  N36      1.0000 0.30536  0.92961  0.99999  Biso   1.000  N 
  O57      1.0000 0.92810  0.86740  0.00000  Biso   1.000  O 
  C85      1.0000 0.88280  0.88280  0.00000  Biso   1.000  C 
  O58      1.0000 0.86740  0.92810  0.00000  Biso   1.000  O 
  C86      1.0000 0.84350  0.84350  0.00000  Biso   1.000  C 
  C87      1.0000 0.85530  0.79420  0.00000  Biso   1.000  C 
  C88      1.0000 0.79420  0.85530  0.00000  Biso   1.000  C 
  C89      1.0000 0.82050  0.75800  0.00000  Biso   1.000  C 
  H37      1.0000 0.88860  0.78510  0.00000  Biso   1.000  H 
  C90      1.0000 0.75800  0.82050  0.00000  Biso   1.000  C 
  H38      1.0000 0.78510  0.88860  0.00000  Biso   1.000  H 
  C91      1.0000 0.76930  0.76930  0.00000  Biso   1.000  C 
  C92      1.0000 0.73070  0.73070  0.00000  Biso   1.000  C 
  H39      1.0000 0.83050  0.72490  0.00000  Biso   1.000  H 
  C93      1.0000 0.74200  0.67950  0.00000  Biso   1.000  C 
  N37      1.0000 0.70538  0.84059  0.00001  Biso   1.000  N 
  C94      1.0000 0.67950  0.74200  0.00000  Biso   1.000  C 
  C95      1.0000 0.70580  0.64470  0.00000  Biso   1.000  C 
  N38      1.0000 0.79473  0.66069  0.00012  Biso   1.000  N 
  C96      1.0000 0.64470  0.70580  0.00000  Biso   1.000  C 
  H40      1.0000 0.66950  0.77510  0.00000  Biso   1.000  H 
  C97      1.0000 0.65650  0.65650  0.00000  Biso   1.000  C 
  C98      1.0000 0.61720  0.61720  0.00000  Biso   1.000  C 
  H41      1.0000 0.71490  0.61140  0.00000  Biso   1.000  H 
  H42      1.0000 0.61140  0.71490  0.00000  Biso   1.000  H 
  O59      1.0000 0.63260  0.57190  0.00000  Biso   1.000  O 
  O60      1.0000 0.57190  0.63260  0.00000  Biso   1.000  O 
  N39      1.0000 0.80744  0.61690  0.00004  Biso   1.000  N 
  N40      1.0000 0.82163  0.57488  0.99998  Biso   1.000  N 
  N41      1.0000 0.69975  0.88569  0.00000  Biso   1.000  N 
  N42      1.0000 0.69464  0.92961  1.00000  Biso   1.000  N 
  O61      1.0000 0.92810  0.13260  0.00000  Biso   1.000  O 
  C99      1.0000 0.88280  0.11720  0.00000  Biso   1.000  C 
  O62      1.0000 0.86740  0.07190  0.00000  Biso   1.000  O 
  C100     1.0000 0.84350  0.15650  0.00000  Biso   1.000  C 
  C101     1.0000 0.85530  0.20580  0.00000  Biso   1.000  C 
  C102     1.0000 0.79420  0.14470  0.00000  Biso   1.000  C 
  C103     1.0000 0.82050  0.24200  0.00000  Biso   1.000  C 
  H43      1.0000 0.88860  0.21490  0.00000  Biso   1.000  H 
  C104     1.0000 0.75800  0.17950  0.00000  Biso   1.000  C 
  H44      1.0000 0.78510  0.11140  0.00000  Biso   1.000  H 
  C105     1.0000 0.76930  0.23070  0.00000  Biso   1.000  C 
  C106     1.0000 0.73070  0.26930  0.00000  Biso   1.000  C 
  H45      1.0000 0.83050  0.27510  0.00000  Biso   1.000  H 
  C107     1.0000 0.74200  0.32050  0.00000  Biso   1.000  C 
  N43      1.0000 0.70538  0.15941  0.00001  Biso   1.000  N 
  C108     1.0000 0.67950  0.25800  0.00000  Biso   1.000  C 
  C109     1.0000 0.70580  0.35530  0.00000  Biso   1.000  C 
  N44      1.0000 0.79473  0.33931  0.99996  Biso   1.000  N 
  C110     1.0000 0.64470  0.29420  0.00000  Biso   1.000  C 
  H46      1.0000 0.66950  0.22490  0.00000  Biso   1.000  H 
  C111     1.0000 0.65650  0.34350  0.00000  Biso   1.000  C 
  C112     1.0000 0.61720  0.38280  0.00000  Biso   1.000  C 
  H47      1.0000 0.71490  0.38860  0.00000  Biso   1.000  H 
  H48      1.0000 0.61140  0.28510  0.00000  Biso   1.000  H 
  O63      1.0000 0.63260  0.42810  0.00000  Biso   1.000  O 
  O64      1.0000 0.57190  0.36740  0.00000  Biso   1.000  O 
  N45      1.0000 0.80744  0.38310  0.99999  Biso   1.000  N 
  N46      1.0000 0.82163  0.42512  0.00001  Biso   1.000  N 
  N47      1.0000 0.69975  0.11431  0.00000  Biso   1.000  N 
  N48      1.0000 0.69464  0.07039  1.00000  Biso   1.000  N 
  O65      1.0000 0.00000  0.07190  0.13260  Biso   1.000  O 
  C113     1.0000 0.00000  0.11720  0.11720  Biso   1.000  C 
  O66      1.0000 0.00000  0.13260  0.07190  Biso   1.000  O 
  C114     1.0000 0.00000  0.15650  0.15650  Biso   1.000  C 
  C115     1.0000 0.00000  0.14470  0.20580  Biso   1.000  C 
  C116     1.0000 0.00000  0.20580  0.14470  Biso   1.000  C 
  C117     1.0000 0.00000  0.17950  0.24200  Biso   1.000  C 
  H49      1.0000 0.00000  0.11140  0.21490  Biso   1.000  H 
  C118     1.0000 0.00000  0.24200  0.17950  Biso   1.000  C 
  H50      1.0000 0.00000  0.21490  0.11140  Biso   1.000  H 
  C119     1.0000 0.00000  0.23070  0.23070  Biso   1.000  C 
  C120     1.0000 0.00000  0.26930  0.26930  Biso   1.000  C 
  H51      1.0000 0.00000  0.16950  0.27510  Biso   1.000  H 
  C121     1.0000 0.00000  0.25800  0.32050  Biso   1.000  C 
  N49      1.0000 1.00000  0.29462  0.15940  Biso   1.000  N 
  C122     1.0000 0.00000  0.32050  0.25800  Biso   1.000  C 
  C123     1.0000 0.00000  0.29420  0.35530  Biso   1.000  C 
  N50      1.0000 1.00000  0.20528  0.33993  Biso   1.000  N 
  C124     1.0000 0.00000  0.35530  0.29420  Biso   1.000  C 
  H52      1.0000 0.00000  0.33050  0.22490  Biso   1.000  H 
  C125     1.0000 0.00000  0.34350  0.34350  Biso   1.000  C 
  C126     1.0000 0.00000  0.38280  0.38280  Biso   1.000  C 
  H53      1.0000 0.00000  0.28510  0.38860  Biso   1.000  H 
  H54      1.0000 0.00000  0.38860  0.28510  Biso   1.000  H 
  O67      1.0000 0.00000  0.36740  0.42810  Biso   1.000  O 
  O68      1.0000 0.00000  0.42810  0.36740  Biso   1.000  O 
  N51      1.0000 1.00000  0.19326  0.38402  Biso   1.000  N 
  N52      1.0000 0.00000  0.17967  0.42623  Biso   1.000  N 
  N53      1.0000 1.00000  0.30025  0.11430  Biso   1.000  N 
  N54      1.0000 0.00000  0.30537  0.07039  Biso   1.000  N 
  O69      1.0000 0.00000  0.07190  0.86740  Biso   1.000  O 
  C127     1.0000 0.00000  0.11720  0.88280  Biso   1.000  C 
  O70      1.0000 0.00000  0.13260  0.92810  Biso   1.000  O 
  C128     1.0000 0.00000  0.15650  0.84350  Biso   1.000  C 
  C129     1.0000 0.00000  0.14470  0.79420  Biso   1.000  C 
  C130     1.0000 0.00000  0.20580  0.85530  Biso   1.000  C 
  C131     1.0000 0.00000  0.17950  0.75800  Biso   1.000  C 
  H55      1.0000 0.00000  0.11140  0.78510  Biso   1.000  H 
  C132     1.0000 0.00000  0.24200  0.82050  Biso   1.000  C 
  H56      1.0000 0.00000  0.21490  0.88860  Biso   1.000  H 
  C133     1.0000 0.00000  0.23070  0.76930  Biso   1.000  C 
  C134     1.0000 0.00000  0.26930  0.73070  Biso   1.000  C 
  H57      1.0000 0.00000  0.16950  0.72490  Biso   1.000  H 
  C135     1.0000 0.00000  0.25800  0.67950  Biso   1.000  C 
  N55      1.0000 1.00000  0.29462  0.84060  Biso   1.000  N 
  C136     1.0000 0.00000  0.32050  0.74200  Biso   1.000  C 
  C137     1.0000 0.00000  0.29420  0.64470  Biso   1.000  C 
  N56      1.0000 1.00000  0.20528  0.66007  Biso   1.000  N 
  C138     1.0000 0.00000  0.35530  0.70580  Biso   1.000  C 
  H58      1.0000 0.00000  0.33050  0.77510  Biso   1.000  H 
  C139     1.0000 0.00000  0.34350  0.65650  Biso   1.000  C 
  C140     1.0000 0.00000  0.38280  0.61720  Biso   1.000  C 
  H59      1.0000 0.00000  0.28510  0.61140  Biso   1.000  H 
  H60      1.0000 0.00000  0.38860  0.71490  Biso   1.000  H 
  O71      1.0000 0.00000  0.36740  0.57190  Biso   1.000  O 
  O72      1.0000 0.00000  0.42810  0.63260  Biso   1.000  O 
  N57      1.0000 1.00000  0.19326  0.61598  Biso   1.000  N 
  N58      1.0000 0.00000  0.17967  0.57377  Biso   1.000  N 
  N59      1.0000 1.00000  0.30025  0.88570  Biso   1.000  N 
  N60      1.0000 0.00000  0.30537  0.92961  Biso   1.000  N 
  O73      1.0000 0.00000  0.92810  0.86740  Biso   1.000  O 
  C141     1.0000 0.00000  0.88280  0.88280  Biso   1.000  C 
  O74      1.0000 0.00000  0.86740  0.92810  Biso   1.000  O 
  C142     1.0000 0.00000  0.84350  0.84350  Biso   1.000  C 
  C143     1.0000 0.00000  0.85530  0.79420  Biso   1.000  C 
  C144     1.0000 0.00000  0.79420  0.85530  Biso   1.000  C 
  C145     1.0000 0.00000  0.82050  0.75800  Biso   1.000  C 
  H61      1.0000 0.00000  0.88860  0.78510  Biso   1.000  H 
  C146     1.0000 0.00000  0.75800  0.82050  Biso   1.000  C 
  H62      1.0000 0.00000  0.78510  0.88860  Biso   1.000  H 
  C147     1.0000 0.00000  0.76930  0.76930  Biso   1.000  C 
  C148     1.0000 0.00000  0.73070  0.73070  Biso   1.000  C 
  H63      1.0000 0.00000  0.83050  0.72490  Biso   1.000  H 
  C149     1.0000 0.00000  0.74200  0.67950  Biso   1.000  C 
  N61      1.0000 1.00000  0.70538  0.84060  Biso   1.000  N 
  C150     1.0000 0.00000  0.67950  0.74200  Biso   1.000  C 
  C151     1.0000 0.00000  0.70580  0.64470  Biso   1.000  C 
  N62      1.0000 1.00000  0.79472  0.66007  Biso   1.000  N 
  C152     1.0000 0.00000  0.64470  0.70580  Biso   1.000  C 
  H64      1.0000 0.00000  0.66950  0.77510  Biso   1.000  H 
  C153     1.0000 0.00000  0.65650  0.65650  Biso   1.000  C 
  C154     1.0000 0.00000  0.61720  0.61720  Biso   1.000  C 
  H65      1.0000 0.00000  0.71490  0.61140  Biso   1.000  H 
  H66      1.0000 0.00000  0.61140  0.71490  Biso   1.000  H 
  O75      1.0000 0.00000  0.63260  0.57190  Biso   1.000  O 
  O76      1.0000 0.00000  0.57190  0.63260  Biso   1.000  O 
  N63      1.0000 1.00000  0.80674  0.61598  Biso   1.000  N 
  N64      1.0000 0.00000  0.82033  0.57377  Biso   1.000  N 
  N65      1.0000 1.00000  0.69974  0.88570  Biso   1.000  N 
  N66      1.0000 0.00000  0.69463  0.92961  Biso   1.000  N 
  O77      1.0000 0.00000  0.92810  0.13260  Biso   1.000  O 
  C155     1.0000 0.00000  0.88280  0.11720  Biso   1.000  C 
  O78      1.0000 0.00000  0.86740  0.07190  Biso   1.000  O 
  C156     1.0000 0.00000  0.84350  0.15650  Biso   1.000  C 
  C157     1.0000 0.00000  0.85530  0.20580  Biso   1.000  C 
  C158     1.0000 0.00000  0.79420  0.14470  Biso   1.000  C 
  C159     1.0000 0.00000  0.82050  0.24200  Biso   1.000  C 
  H67      1.0000 0.00000  0.88860  0.21490  Biso   1.000  H 
  C160     1.0000 0.00000  0.75800  0.17950  Biso   1.000  C 
  H68      1.0000 0.00000  0.78510  0.11140  Biso   1.000  H 
  C161     1.0000 0.00000  0.76930  0.23070  Biso   1.000  C 
  C162     1.0000 0.00000  0.73070  0.26930  Biso   1.000  C 
  H69      1.0000 0.00000  0.83050  0.27510  Biso   1.000  H 
  C163     1.0000 0.00000  0.74200  0.32050  Biso   1.000  C 
  N67      1.0000 1.00000  0.70538  0.15940  Biso   1.000  N 
  C164     1.0000 0.00000  0.67950  0.25800  Biso   1.000  C 
  C165     1.0000 0.00000  0.70580  0.35530  Biso   1.000  C 
  N68      1.0000 1.00000  0.79472  0.33993  Biso   1.000  N 
  C166     1.0000 0.00000  0.64470  0.29420  Biso   1.000  C 
  H70      1.0000 0.00000  0.66950  0.22490  Biso   1.000  H 
  C167     1.0000 0.00000  0.65650  0.34350  Biso   1.000  C 
  C168     1.0000 0.00000  0.61720  0.38280  Biso   1.000  C 
  H71      1.0000 0.00000  0.71490  0.38860  Biso   1.000  H 
  H72      1.0000 0.00000  0.61140  0.28510  Biso   1.000  H 
  O79      1.0000 0.00000  0.63260  0.42810  Biso   1.000  O 
  O80      1.0000 0.00000  0.57190  0.36740  Biso   1.000  O 
  N69      1.0000 1.00000  0.80674  0.38402  Biso   1.000  N 
  N70      1.0000 0.00000  0.82033  0.42623  Biso   1.000  N 
  N71      1.0000 1.00000  0.69974  0.11430  Biso   1.000  N 
  N72      1.0000 0.00000  0.69463  0.07039  Biso   1.000  N 
  O81      1.0000 0.13260  0.50000  0.57190  Biso   1.000  O 
  C169     1.0000 0.11720  0.50000  0.61720  Biso   1.000  C 
  O82      1.0000 0.07190  0.50000  0.63260  Biso   1.000  O 
  C170     1.0000 0.15650  0.50000  0.65650  Biso   1.000  C 
  C171     1.0000 0.20580  0.50000  0.64470  Biso   1.000  C 
  C172     1.0000 0.14470  0.50000  0.70580  Biso   1.000  C 
  C173     1.0000 0.24200  0.50000  0.67950  Biso   1.000  C 
  H73      1.0000 0.21490  0.50000  0.61140  Biso   1.000  H 
  C174     1.0000 0.17950  0.50000  0.74200  Biso   1.000  C 
  H74      1.0000 0.11140  0.50000  0.71490  Biso   1.000  H 
  C175     1.0000 0.23070  0.50000  0.73070  Biso   1.000  C 
  C176     1.0000 0.26930  0.50000  0.76930  Biso   1.000  C 
  H75      1.0000 0.27510  0.50000  0.66950  Biso   1.000  H 
  C177     1.0000 0.32050  0.50000  0.75800  Biso   1.000  C 
  N73      1.0000 0.15940  0.50000  0.79462  Biso   1.000  N 
  C178     1.0000 0.25800  0.50000  0.82050  Biso   1.000  C 
  C179     1.0000 0.35530  0.50000  0.79420  Biso   1.000  C 
  N74      1.0000 0.33931  0.50000  0.70527  Biso   1.000  N 
  C180     1.0000 0.29420  0.50000  0.85530  Biso   1.000  C 
  H76      1.0000 0.22490  0.50000  0.83050  Biso   1.000  H 
  C181     1.0000 0.34350  0.50000  0.84350  Biso   1.000  C 
  C182     1.0000 0.38280  0.50000  0.88280  Biso   1.000  C 
  H77      1.0000 0.38860  0.50000  0.78510  Biso   1.000  H 
  H78      1.0000 0.28510  0.50000  0.88860  Biso   1.000  H 
  O83      1.0000 0.42810  0.50000  0.86740  Biso   1.000  O 
  O84      1.0000 0.36740  0.50000  0.92810  Biso   1.000  O 
  N75      1.0000 0.38310  0.50000  0.69256  Biso   1.000  N 
  N76      1.0000 0.42512  0.50000  0.67837  Biso   1.000  N 
  N77      1.0000 0.11430  0.50000  0.80025  Biso   1.000  N 
  N78      1.0000 0.07038  0.50000  0.80537  Biso   1.000  N 
  O85      1.0000 0.86740  0.50000  0.57190  Biso   1.000  O 
  C183     1.0000 0.88280  0.50000  0.61720  Biso   1.000  C 
  O86      1.0000 0.92810  0.50000  0.63260  Biso   1.000  O 
  C184     1.0000 0.84350  0.50000  0.65650  Biso   1.000  C 
  C185     1.0000 0.79420  0.50000  0.64470  Biso   1.000  C 
  C186     1.0000 0.85530  0.50000  0.70580  Biso   1.000  C 
  C187     1.0000 0.75800  0.50000  0.67950  Biso   1.000  C 
  H79      1.0000 0.78510  0.50000  0.61140  Biso   1.000  H 
  C188     1.0000 0.82050  0.50000  0.74200  Biso   1.000  C 
  H80      1.0000 0.88860  0.50000  0.71490  Biso   1.000  H 
  C189     1.0000 0.76930  0.50000  0.73070  Biso   1.000  C 
  C190     1.0000 0.73070  0.50000  0.76930  Biso   1.000  C 
  H81      1.0000 0.72490  0.50000  0.66950  Biso   1.000  H 
  C191     1.0000 0.67950  0.50000  0.75800  Biso   1.000  C 
  N79      1.0000 0.84060  0.50000  0.79462  Biso   1.000  N 
  C192     1.0000 0.74200  0.50000  0.82050  Biso   1.000  C 
  C193     1.0000 0.64470  0.50000  0.79420  Biso   1.000  C 
  N80      1.0000 0.66069  0.50000  0.70527  Biso   1.000  N 
  C194     1.0000 0.70580  0.50000  0.85530  Biso   1.000  C 
  H82      1.0000 0.77510  0.50000  0.83050  Biso   1.000  H 
  C195     1.0000 0.65650  0.50000  0.84350  Biso   1.000  C 
  C196     1.0000 0.61720  0.50000  0.88280  Biso   1.000  C 
  H83      1.0000 0.61140  0.50000  0.78510  Biso   1.000  H 
  H84      1.0000 0.71490  0.50000  0.88860  Biso   1.000  H 
  O87      1.0000 0.57190  0.50000  0.86740  Biso   1.000  O 
  O88      1.0000 0.63260  0.50000  0.92810  Biso   1.000  O 
  N81      1.0000 0.61690  0.50000  0.69256  Biso   1.000  N 
  N82      1.0000 0.57488  0.50000  0.67837  Biso   1.000  N 
  N83      1.0000 0.88570  0.50000  0.80025  Biso   1.000  N 
  N84      1.0000 0.92962  0.50000  0.80537  Biso   1.000  N 
  O89      1.0000 0.86740  0.50000  0.42810  Biso   1.000  O 
  C197     1.0000 0.88280  0.50000  0.38280  Biso   1.000  C 
  O90      1.0000 0.92810  0.50000  0.36740  Biso   1.000  O 
  C198     1.0000 0.84350  0.50000  0.34350  Biso   1.000  C 
  C199     1.0000 0.79420  0.50000  0.35530  Biso   1.000  C 
  C200     1.0000 0.85530  0.50000  0.29420  Biso   1.000  C 
  C201     1.0000 0.75800  0.50000  0.32050  Biso   1.000  C 
  H85      1.0000 0.78510  0.50000  0.38860  Biso   1.000  H 
  C202     1.0000 0.82050  0.50000  0.25800  Biso   1.000  C 
  H86      1.0000 0.88860  0.50000  0.28510  Biso   1.000  H 
  C203     1.0000 0.76930  0.50000  0.26930  Biso   1.000  C 
  C204     1.0000 0.73070  0.50000  0.23070  Biso   1.000  C 
  H87      1.0000 0.72490  0.50000  0.33050  Biso   1.000  H 
  C205     1.0000 0.67950  0.50000  0.24200  Biso   1.000  C 
  N85      1.0000 0.84060  0.50000  0.20538  Biso   1.000  N 
  C206     1.0000 0.74200  0.50000  0.17950  Biso   1.000  C 
  C207     1.0000 0.64470  0.50000  0.20580  Biso   1.000  C 
  N86      1.0000 0.66069  0.50000  0.29473  Biso   1.000  N 
  C208     1.0000 0.70580  0.50000  0.14470  Biso   1.000  C 
  H88      1.0000 0.77510  0.50000  0.16950  Biso   1.000  H 
  C209     1.0000 0.65650  0.50000  0.15650  Biso   1.000  C 
  C210     1.0000 0.61720  0.50000  0.11720  Biso   1.000  C 
  H89      1.0000 0.61140  0.50000  0.21490  Biso   1.000  H 
  H90      1.0000 0.71490  0.50000  0.11140  Biso   1.000  H 
  O91      1.0000 0.57190  0.50000  0.13260  Biso   1.000  O 
  O92      1.0000 0.63260  0.50000  0.07190  Biso   1.000  O 
  N87      1.0000 0.61690  0.50000  0.30744  Biso   1.000  N 
  N88      1.0000 0.57488  0.50000  0.32163  Biso   1.000  N 
  N89      1.0000 0.88570  0.50000  0.19975  Biso   1.000  N 
  N90      1.0000 0.92962  0.50000  0.19463  Biso   1.000  N 
  O93      1.0000 0.13260  0.50000  0.42810  Biso   1.000  O 
  C211     1.0000 0.11720  0.50000  0.38280  Biso   1.000  C 
  O94      1.0000 0.07190  0.50000  0.36740  Biso   1.000  O 
  C212     1.0000 0.15650  0.50000  0.34350  Biso   1.000  C 
  C213     1.0000 0.20580  0.50000  0.35530  Biso   1.000  C 
  C214     1.0000 0.14470  0.50000  0.29420  Biso   1.000  C 
  C215     1.0000 0.24200  0.50000  0.32050  Biso   1.000  C 
  H91      1.0000 0.21490  0.50000  0.38860  Biso   1.000  H 
  C216     1.0000 0.17950  0.50000  0.25800  Biso   1.000  C 
  H92      1.0000 0.11140  0.50000  0.28510  Biso   1.000  H 
  C217     1.0000 0.23070  0.50000  0.26930  Biso   1.000  C 
  C218     1.0000 0.26930  0.50000  0.23070  Biso   1.000  C 
  H93      1.0000 0.27510  0.50000  0.33050  Biso   1.000  H 
  C219     1.0000 0.32050  0.50000  0.24200  Biso   1.000  C 
  N91      1.0000 0.15940  0.50000  0.20538  Biso   1.000  N 
  C220     1.0000 0.25800  0.50000  0.17950  Biso   1.000  C 
  C221     1.0000 0.35530  0.50000  0.20580  Biso   1.000  C 
  N92      1.0000 0.33931  0.50000  0.29473  Biso   1.000  N 
  C222     1.0000 0.29420  0.50000  0.14470  Biso   1.000  C 
  H94      1.0000 0.22490  0.50000  0.16950  Biso   1.000  H 
  C223     1.0000 0.34350  0.50000  0.15650  Biso   1.000  C 
  C224     1.0000 0.38280  0.50000  0.11720  Biso   1.000  C 
  H95      1.0000 0.38860  0.50000  0.21490  Biso   1.000  H 
  H96      1.0000 0.28510  0.50000  0.11140  Biso   1.000  H 
  O95      1.0000 0.42810  0.50000  0.13260  Biso   1.000  O 
  O96      1.0000 0.36740  0.50000  0.07190  Biso   1.000  O 
  N93      1.0000 0.38310  0.50000  0.30744  Biso   1.000  N 
  N94      1.0000 0.42512  0.50000  0.32163  Biso   1.000  N 
  N95      1.0000 0.11430  0.50000  0.19975  Biso   1.000  N 
  N96      1.0000 0.07038  0.50000  0.19463  Biso   1.000  N 
  O97      1.0000 0.07190  0.63260  0.50000  Biso   1.000  O 
  C225     1.0000 0.11720  0.61720  0.50000  Biso   1.000  C 
  O98      1.0000 0.13260  0.57190  0.50000  Biso   1.000  O 
  C226     1.0000 0.15650  0.65650  0.50000  Biso   1.000  C 
  C227     1.0000 0.14470  0.70580  0.50000  Biso   1.000  C 
  C228     1.0000 0.20580  0.64470  0.50000  Biso   1.000  C 
  C229     1.0000 0.17950  0.74200  0.50000  Biso   1.000  C 
  H97      1.0000 0.11140  0.71490  0.50000  Biso   1.000  H 
  C230     1.0000 0.24200  0.67950  0.50000  Biso   1.000  C 
  H98      1.0000 0.21490  0.61140  0.50000  Biso   1.000  H 
  C231     1.0000 0.23070  0.73070  0.50000  Biso   1.000  C 
  C232     1.0000 0.26930  0.76930  0.50000  Biso   1.000  C 
  H99      1.0000 0.16950  0.77510  0.50000  Biso   1.000  H 
  C233     1.0000 0.25800  0.82050  0.50000  Biso   1.000  C 
  N97      1.0000 0.29462  0.65940  0.50000  Biso   1.000  N 
  C234     1.0000 0.32050  0.75800  0.50000  Biso   1.000  C 
  C235     1.0000 0.29420  0.85530  0.50000  Biso   1.000  C 
  N98      1.0000 0.20516  0.84018  0.50000  Biso   1.000  N 
  C236     1.0000 0.35530  0.79420  0.50000  Biso   1.000  C 
  H100     1.0000 0.33050  0.72490  0.50000  Biso   1.000  H 
  C237     1.0000 0.34350  0.84350  0.50000  Biso   1.000  C 
  C238     1.0000 0.38280  0.88280  0.50000  Biso   1.000  C 
  H101     1.0000 0.28510  0.88860  0.50000  Biso   1.000  H 
  H102     1.0000 0.38860  0.78510  0.50000  Biso   1.000  H 
  O99      1.0000 0.36740  0.92810  0.50000  Biso   1.000  O 
  O100     1.0000 0.42810  0.86740  0.50000  Biso   1.000  O 
  N99      1.0000 0.19202  0.88415  0.50000  Biso   1.000  N 
  N100     1.0000 0.17680  0.92592  0.50000  Biso   1.000  N 
  N101     1.0000 0.30025  0.61430  0.50000  Biso   1.000  N 
  N102     1.0000 0.30537  0.57039  0.50000  Biso   1.000  N 
  O101     1.0000 0.07190  0.36740  0.50000  Biso   1.000  O 
  C239     1.0000 0.11720  0.38280  0.50000  Biso   1.000  C 
  O102     1.0000 0.13260  0.42810  0.50000  Biso   1.000  O 
  C240     1.0000 0.15650  0.34350  0.50000  Biso   1.000  C 
  C241     1.0000 0.14470  0.29420  0.50000  Biso   1.000  C 
  C242     1.0000 0.20580  0.35530  0.50000  Biso   1.000  C 
  C243     1.0000 0.17950  0.25800  0.50000  Biso   1.000  C 
  H103     1.0000 0.11140  0.28510  0.50000  Biso   1.000  H 
  C244     1.0000 0.24200  0.32050  0.50000  Biso   1.000  C 
  H104     1.0000 0.21490  0.38860  0.50000  Biso   1.000  H 
  C245     1.0000 0.23070  0.26930  0.50000  Biso   1.000  C 
  C246     1.0000 0.26930  0.23070  0.50000  Biso   1.000  C 
  H105     1.0000 0.16950  0.22490  0.50000  Biso   1.000  H 
  C247     1.0000 0.25800  0.17950  0.50000  Biso   1.000  C 
  N103     1.0000 0.29462  0.34060  0.50000  Biso   1.000  N 
  C248     1.0000 0.32050  0.24200  0.50000  Biso   1.000  C 
  C249     1.0000 0.29420  0.14470  0.50000  Biso   1.000  C 
  N104     1.0000 0.20516  0.15981  0.50000  Biso   1.000  N 
  C250     1.0000 0.35530  0.20580  0.50000  Biso   1.000  C 
  H106     1.0000 0.33050  0.27510  0.50000  Biso   1.000  H 
  C251     1.0000 0.34350  0.15650  0.50000  Biso   1.000  C 
  C252     1.0000 0.38280  0.11720  0.50000  Biso   1.000  C 
  H107     1.0000 0.28510  0.11140  0.50000  Biso   1.000  H 
  H108     1.0000 0.38860  0.21490  0.50000  Biso   1.000  H 
  O103     1.0000 0.36740  0.07190  0.50000  Biso   1.000  O 
  O104     1.0000 0.42810  0.13260  0.50000  Biso   1.000  O 
  N105     1.0000 0.19202  0.11585  0.50000  Biso   1.000  N 
  N106     1.0000 0.17680  0.07408  0.50000  Biso   1.000  N 
  N107     1.0000 0.30025  0.38570  0.50000  Biso   1.000  N 
  N108     1.0000 0.30537  0.42961  0.50000  Biso   1.000  N 
  O105     1.0000 0.92810  0.36740  0.50000  Biso   1.000  O 
  C253     1.0000 0.88280  0.38280  0.50000  Biso   1.000  C 
  O106     1.0000 0.86740  0.42810  0.50000  Biso   1.000  O 
  C254     1.0000 0.84350  0.34350  0.50000  Biso   1.000  C 
  C255     1.0000 0.85530  0.29420  0.50000  Biso   1.000  C 
  C256     1.0000 0.79420  0.35530  0.50000  Biso   1.000  C 
  C257     1.0000 0.82050  0.25800  0.50000  Biso   1.000  C 
  H109     1.0000 0.88860  0.28510  0.50000  Biso   1.000  H 
  C258     1.0000 0.75800  0.32050  0.50000  Biso   1.000  C 
  H110     1.0000 0.78510  0.38860  0.50000  Biso   1.000  H 
  C259     1.0000 0.76930  0.26930  0.50000  Biso   1.000  C 
  C260     1.0000 0.73070  0.23070  0.50000  Biso   1.000  C 
  H111     1.0000 0.83050  0.22490  0.50000  Biso   1.000  H 
  C261     1.0000 0.74200  0.17950  0.50000  Biso   1.000  C 
  N109     1.0000 0.70538  0.34060  0.50000  Biso   1.000  N 
  C262     1.0000 0.67950  0.24200  0.50000  Biso   1.000  C 
  C263     1.0000 0.70580  0.14470  0.50000  Biso   1.000  C 
  N110     1.0000 0.79484  0.15981  0.50000  Biso   1.000  N 
  C264     1.0000 0.64470  0.20580  0.50000  Biso   1.000  C 
  H112     1.0000 0.66950  0.27510  0.50000  Biso   1.000  H 
  C265     1.0000 0.65650  0.15650  0.50000  Biso   1.000  C 
  C266     1.0000 0.61720  0.11720  0.50000  Biso   1.000  C 
  H113     1.0000 0.71490  0.11140  0.50000  Biso   1.000  H 
  H114     1.0000 0.61140  0.21490  0.50000  Biso   1.000  H 
  O107     1.0000 0.63260  0.07190  0.50000  Biso   1.000  O 
  O108     1.0000 0.57190  0.13260  0.50000  Biso   1.000  O 
  N111     1.0000 0.80798  0.11585  0.50000  Biso   1.000  N 
  N112     1.0000 0.82320  0.07408  0.50000  Biso   1.000  N 
  N113     1.0000 0.69975  0.38570  0.50000  Biso   1.000  N 
  N114     1.0000 0.69463  0.42961  0.50000  Biso   1.000  N 
  O109     1.0000 0.92810  0.63260  0.50000  Biso   1.000  O 
  C267     1.0000 0.88280  0.61720  0.50000  Biso   1.000  C 
  O110     1.0000 0.86740  0.57190  0.50000  Biso   1.000  O 
  C268     1.0000 0.84350  0.65650  0.50000  Biso   1.000  C 
  C269     1.0000 0.85530  0.70580  0.50000  Biso   1.000  C 
  C270     1.0000 0.79420  0.64470  0.50000  Biso   1.000  C 
  C271     1.0000 0.82050  0.74200  0.50000  Biso   1.000  C 
  H115     1.0000 0.88860  0.71490  0.50000  Biso   1.000  H 
  C272     1.0000 0.75800  0.67950  0.50000  Biso   1.000  C 
  H116     1.0000 0.78510  0.61140  0.50000  Biso   1.000  H 
  C273     1.0000 0.76930  0.73070  0.50000  Biso   1.000  C 
  C274     1.0000 0.73070  0.76930  0.50000  Biso   1.000  C 
  H117     1.0000 0.83050  0.77510  0.50000  Biso   1.000  H 
  C275     1.0000 0.74200  0.82050  0.50000  Biso   1.000  C 
  N115     1.0000 0.70538  0.65940  0.50000  Biso   1.000  N 
  C276     1.0000 0.67950  0.75800  0.50000  Biso   1.000  C 
  C277     1.0000 0.70580  0.85530  0.50000  Biso   1.000  C 
  N116     1.0000 0.79484  0.84018  0.50000  Biso   1.000  N 
  C278     1.0000 0.64470  0.79420  0.50000  Biso   1.000  C 
  H118     1.0000 0.66950  0.72490  0.50000  Biso   1.000  H 
  C279     1.0000 0.65650  0.84350  0.50000  Biso   1.000  C 
  C280     1.0000 0.61720  0.88280  0.50000  Biso   1.000  C 
  H119     1.0000 0.71490  0.88860  0.50000  Biso   1.000  H 
  H120     1.0000 0.61140  0.78510  0.50000  Biso   1.000  H 
  O111     1.0000 0.63260  0.92810  0.50000  Biso   1.000  O 
  O112     1.0000 0.57190  0.86740  0.50000  Biso   1.000  O 
  N117     1.0000 0.80798  0.88415  0.50000  Biso   1.000  N 
  N118     1.0000 0.82320  0.92592  0.50000  Biso   1.000  N 
  N119     1.0000 0.69975  0.61430  0.50000  Biso   1.000  N 
  N120     1.0000 0.69463  0.57039  0.50000  Biso   1.000  N 
  O113     1.0000 0.50000  0.07190  0.63260  Biso   1.000  O 
  C281     1.0000 0.50000  0.11720  0.61720  Biso   1.000  C 
  O114     1.0000 0.50000  0.13260  0.57190  Biso   1.000  O 
  C282     1.0000 0.50000  0.15650  0.65650  Biso   1.000  C 
  C283     1.0000 0.50000  0.14470  0.70580  Biso   1.000  C 
  C284     1.0000 0.50000  0.20580  0.64470  Biso   1.000  C 
  C285     1.0000 0.50000  0.17950  0.74200  Biso   1.000  C 
  H121     1.0000 0.50000  0.11140  0.71490  Biso   1.000  H 
  C286     1.0000 0.50000  0.24200  0.67950  Biso   1.000  C 
  H122     1.0000 0.50000  0.21490  0.61140  Biso   1.000  H 
  C287     1.0000 0.50000  0.23070  0.73070  Biso   1.000  C 
  C288     1.0000 0.50000  0.26930  0.76930  Biso   1.000  C 
  H123     1.0000 0.50000  0.16950  0.77510  Biso   1.000  H 
  C289     1.0000 0.50000  0.25800  0.82050  Biso   1.000  C 
  N121     1.0000 0.50000  0.29462  0.65940  Biso   1.000  N 
  C290     1.0000 0.50000  0.32050  0.75800  Biso   1.000  C 
  C291     1.0000 0.50000  0.29420  0.85530  Biso   1.000  C 
  N122     1.0000 0.50000  0.20516  0.84018  Biso   1.000  N 
  C292     1.0000 0.50000  0.35530  0.79420  Biso   1.000  C 
  H124     1.0000 0.50000  0.33050  0.72490  Biso   1.000  H 
  C293     1.0000 0.50000  0.34350  0.84350  Biso   1.000  C 
  C294     1.0000 0.50000  0.38280  0.88280  Biso   1.000  C 
  H125     1.0000 0.50000  0.28510  0.88860  Biso   1.000  H 
  H126     1.0000 0.50000  0.38860  0.78510  Biso   1.000  H 
  O115     1.0000 0.50000  0.36740  0.92810  Biso   1.000  O 
  O116     1.0000 0.50000  0.42810  0.86740  Biso   1.000  O 
  N123     1.0000 0.50000  0.19203  0.88415  Biso   1.000  N 
  N124     1.0000 0.50000  0.17682  0.92592  Biso   1.000  N 
  N125     1.0000 0.50000  0.30025  0.61430  Biso   1.000  N 
  N126     1.0000 0.50000  0.30536  0.57039  Biso   1.000  N 
  O117     1.0000 0.50000  0.07190  0.36740  Biso   1.000  O 
  C295     1.0000 0.50000  0.11720  0.38280  Biso   1.000  C 
  O118     1.0000 0.50000  0.13260  0.42810  Biso   1.000  O 
  C296     1.0000 0.50000  0.15650  0.34350  Biso   1.000  C 
  C297     1.0000 0.50000  0.14470  0.29420  Biso   1.000  C 
  C298     1.0000 0.50000  0.20580  0.35530  Biso   1.000  C 
  C299     1.0000 0.50000  0.17950  0.25800  Biso   1.000  C 
  H127     1.0000 0.50000  0.11140  0.28510  Biso   1.000  H 
  C300     1.0000 0.50000  0.24200  0.32050  Biso   1.000  C 
  H128     1.0000 0.50000  0.21490  0.38860  Biso   1.000  H 
  C301     1.0000 0.50000  0.23070  0.26930  Biso   1.000  C 
  C302     1.0000 0.50000  0.26930  0.23070  Biso   1.000  C 
  H129     1.0000 0.50000  0.16950  0.22490  Biso   1.000  H 
  C303     1.0000 0.50000  0.25800  0.17950  Biso   1.000  C 
  N127     1.0000 0.50000  0.29462  0.34060  Biso   1.000  N 
  C304     1.0000 0.50000  0.32050  0.24200  Biso   1.000  C 
  C305     1.0000 0.50000  0.29420  0.14470  Biso   1.000  C 
  N128     1.0000 0.50000  0.20516  0.15981  Biso   1.000  N 
  C306     1.0000 0.50000  0.35530  0.20580  Biso   1.000  C 
  H130     1.0000 0.50000  0.33050  0.27510  Biso   1.000  H 
  C307     1.0000 0.50000  0.34350  0.15650  Biso   1.000  C 
  C308     1.0000 0.50000  0.38280  0.11720  Biso   1.000  C 
  H131     1.0000 0.50000  0.28510  0.11140  Biso   1.000  H 
  H132     1.0000 0.50000  0.38860  0.21490  Biso   1.000  H 
  O119     1.0000 0.50000  0.36740  0.07190  Biso   1.000  O 
  O120     1.0000 0.50000  0.42810  0.13260  Biso   1.000  O 
  N129     1.0000 0.50000  0.19203  0.11585  Biso   1.000  N 
  N130     1.0000 0.50000  0.17682  0.07408  Biso   1.000  N 
  N131     1.0000 0.50000  0.30025  0.38570  Biso   1.000  N 
  N132     1.0000 0.50000  0.30536  0.42961  Biso   1.000  N 
  O121     1.0000 0.50000  0.92810  0.36740  Biso   1.000  O 
  C309     1.0000 0.50000  0.88280  0.38280  Biso   1.000  C 
  O122     1.0000 0.50000  0.86740  0.42810  Biso   1.000  O 
  C310     1.0000 0.50000  0.84350  0.34350  Biso   1.000  C 
  C311     1.0000 0.50000  0.85530  0.29420  Biso   1.000  C 
  C312     1.0000 0.50000  0.79420  0.35530  Biso   1.000  C 
  C313     1.0000 0.50000  0.82050  0.25800  Biso   1.000  C 
  H133     1.0000 0.50000  0.88860  0.28510  Biso   1.000  H 
  C314     1.0000 0.50000  0.75800  0.32050  Biso   1.000  C 
  H134     1.0000 0.50000  0.78510  0.38860  Biso   1.000  H 
  C315     1.0000 0.50000  0.76930  0.26930  Biso   1.000  C 
  C316     1.0000 0.50000  0.73070  0.23070  Biso   1.000  C 
  H135     1.0000 0.50000  0.83050  0.22490  Biso   1.000  H 
  C317     1.0000 0.50000  0.74200  0.17950  Biso   1.000  C 
  N133     1.0000 0.50000  0.70538  0.34060  Biso   1.000  N 
  C318     1.0000 0.50000  0.67950  0.24200  Biso   1.000  C 
  C319     1.0000 0.50000  0.70580  0.14470  Biso   1.000  C 
  N134     1.0000 0.50000  0.79484  0.15981  Biso   1.000  N 
  C320     1.0000 0.50000  0.64470  0.20580  Biso   1.000  C 
  H136     1.0000 0.50000  0.66950  0.27510  Biso   1.000  H 
  C321     1.0000 0.50000  0.65650  0.15650  Biso   1.000  C 
  C322     1.0000 0.50000  0.61720  0.11720  Biso   1.000  C 
  H137     1.0000 0.50000  0.71490  0.11140  Biso   1.000  H 
  H138     1.0000 0.50000  0.61140  0.21490  Biso   1.000  H 
  O123     1.0000 0.50000  0.63260  0.07190  Biso   1.000  O 
  O124     1.0000 0.50000  0.57190  0.13260  Biso   1.000  O 
  N135     1.0000 0.50000  0.80797  0.11585  Biso   1.000  N 
  N136     1.0000 0.50000  0.82318  0.07408  Biso   1.000  N 
  N137     1.0000 0.50000  0.69975  0.38570  Biso   1.000  N 
  N138     1.0000 0.50000  0.69463  0.42961  Biso   1.000  N 
  O125     1.0000 0.50000  0.92810  0.63260  Biso   1.000  O 
  C323     1.0000 0.50000  0.88280  0.61720  Biso   1.000  C 
  O126     1.0000 0.50000  0.86740  0.57190  Biso   1.000  O 
  C324     1.0000 0.50000  0.84350  0.65650  Biso   1.000  C 
  C325     1.0000 0.50000  0.85530  0.70580  Biso   1.000  C 
  C326     1.0000 0.50000  0.79420  0.64470  Biso   1.000  C 
  C327     1.0000 0.50000  0.82050  0.74200  Biso   1.000  C 
  H139     1.0000 0.50000  0.88860  0.71490  Biso   1.000  H 
  C328     1.0000 0.50000  0.75800  0.67950  Biso   1.000  C 
  H140     1.0000 0.50000  0.78510  0.61140  Biso   1.000  H 
  C329     1.0000 0.50000  0.76930  0.73070  Biso   1.000  C 
  C330     1.0000 0.50000  0.73070  0.76930  Biso   1.000  C 
  H141     1.0000 0.50000  0.83050  0.77510  Biso   1.000  H 
  C331     1.0000 0.50000  0.74200  0.82050  Biso   1.000  C 
  N139     1.0000 0.50000  0.70538  0.65940  Biso   1.000  N 
  C332     1.0000 0.50000  0.67950  0.75800  Biso   1.000  C 
  C333     1.0000 0.50000  0.70580  0.85530  Biso   1.000  C 
  N140     1.0000 0.50000  0.79484  0.84018  Biso   1.000  N 
  C334     1.0000 0.50000  0.64470  0.79420  Biso   1.000  C 
  H142     1.0000 0.50000  0.66950  0.72490  Biso   1.000  H 
  C335     1.0000 0.50000  0.65650  0.84350  Biso   1.000  C 
  C336     1.0000 0.50000  0.61720  0.88280  Biso   1.000  C 
  H143     1.0000 0.50000  0.71490  0.88860  Biso   1.000  H 
  H144     1.0000 0.50000  0.61140  0.78510  Biso   1.000  H 
  O127     1.0000 0.50000  0.63260  0.92810  Biso   1.000  O 
  O128     1.0000 0.50000  0.57190  0.86740  Biso   1.000  O 
  N141     1.0000 0.50000  0.80797  0.88415  Biso   1.000  N 
  N142     1.0000 0.50000  0.82318  0.92592  Biso   1.000  N 
  N143     1.0000 0.50000  0.69975  0.61430  Biso   1.000  N 
  N144     1.0000 0.50000  0.69463  0.57039  Biso   1.000  N 
