data_image0
_cell_length_a       26.896
_cell_length_b       26.896
_cell_length_c       26.896
_cell_angle_alpha    90
_cell_angle_beta     90
_cell_angle_gamma    90

_symmetry_space_group_name_H-M    "P 1"
_symmetry_int_tables_number       1

loop_
  _symmetry_equiv_pos_as_xyz
  'x, y, z'

loop_
  _atom_site_label
  _atom_site_occupancy
  _atom_site_fract_x
  _atom_site_fract_y
  _atom_site_fract_z
  _atom_site_thermal_displace_type
  _atom_site_B_iso_or_equiv
  _atom_site_type_symbol
  Zr1      1.0000 0.09204  0.00000  0.00000  Biso   1.000  Zr
  Zr2      1.0000 0.90796  0.00000  0.00000  Biso   1.000  Zr
  Zr3      1.0000 0.00000  0.09204  0.00000  Biso   1.000  Zr
  Zr4      1.0000 0.00000  0.90796  0.00000  Biso   1.000  Zr
  Zr5      1.0000 0.00000  0.00000  0.09204  Biso   1.000  Zr
  Zr6      1.0000 0.00000  0.00000  0.90796  Biso   1.000  Zr
  Zr7      1.0000 0.09204  0.50000  0.50000  Biso   1.000  Zr
  Zr8      1.0000 0.90796  0.50000  0.50000  Biso   1.000  Zr
  Zr9      1.0000 0.00000  0.59204  0.50000  Biso   1.000  Zr
  Zr10     1.0000 0.00000  0.40796  0.50000  Biso   1.000  Zr
  Zr11     1.0000 0.00000  0.50000  0.59204  Biso   1.000  Zr
  Zr12     1.0000 0.00000  0.50000  0.40796  Biso   1.000  Zr
  Zr13     1.0000 0.59204  0.00000  0.50000  Biso   1.000  Zr
  Zr14     1.0000 0.40796  0.00000  0.50000  Biso   1.000  Zr
  Zr15     1.0000 0.50000  0.09204  0.50000  Biso   1.000  Zr
  Zr16     1.0000 0.50000  0.90796  0.50000  Biso   1.000  Zr
  Zr17     1.0000 0.50000  0.00000  0.59204  Biso   1.000  Zr
  Zr18     1.0000 0.50000  0.00000  0.40796  Biso   1.000  Zr
  Zr19     1.0000 0.59204  0.50000  0.00000  Biso   1.000  Zr
  Zr20     1.0000 0.40796  0.50000  0.00000  Biso   1.000  Zr
  Zr21     1.0000 0.50000  0.59204  0.00000  Biso   1.000  Zr
  Zr22     1.0000 0.50000  0.40796  0.00000  Biso   1.000  Zr
  Zr23     1.0000 0.50000  0.50000  0.09204  Biso   1.000  Zr
  Zr24     1.0000 0.50000  0.50000  0.90796  Biso   1.000  Zr
  O1       1.0000 0.04540  0.04540  0.04540  Biso   1.000  O 
  O2       1.0000 0.95460  0.95460  0.04540  Biso   1.000  O 
  O3       1.0000 0.95460  0.04540  0.95460  Biso   1.000  O 
  O4       1.0000 0.04540  0.95460  0.95460  Biso   1.000  O 
  O5       1.0000 0.04540  0.04540  0.95460  Biso   1.000  O 
  O6       1.0000 0.95460  0.95460  0.95460  Biso   1.000  O 
  O7       1.0000 0.04540  0.95460  0.04540  Biso   1.000  O 
  O8       1.0000 0.95460  0.04540  0.04540  Biso   1.000  O 
  O9       1.0000 0.04540  0.54540  0.54540  Biso   1.000  O 
  O10      1.0000 0.95460  0.45460  0.54540  Biso   1.000  O 
  O11      1.0000 0.95460  0.54540  0.45460  Biso   1.000  O 
  O12      1.0000 0.04540  0.45460  0.45460  Biso   1.000  O 
  O13      1.0000 0.04540  0.54540  0.45460  Biso   1.000  O 
  O14      1.0000 0.95460  0.45460  0.45460  Biso   1.000  O 
  O15      1.0000 0.04540  0.45460  0.54540  Biso   1.000  O 
  O16      1.0000 0.95460  0.54540  0.54540  Biso   1.000  O 
  O17      1.0000 0.54540  0.04540  0.54540  Biso   1.000  O 
  O18      1.0000 0.45460  0.95460  0.54540  Biso   1.000  O 
  O19      1.0000 0.45460  0.04540  0.45460  Biso   1.000  O 
  O20      1.0000 0.54540  0.95460  0.45460  Biso   1.000  O 
  O21      1.0000 0.54540  0.04540  0.45460  Biso   1.000  O 
  O22      1.0000 0.45460  0.95460  0.45460  Biso   1.000  O 
  O23      1.0000 0.54540  0.95460  0.54540  Biso   1.000  O 
  O24      1.0000 0.45460  0.04540  0.54540  Biso   1.000  O 
  O25      1.0000 0.54540  0.54540  0.04540  Biso   1.000  O 
  O26      1.0000 0.45460  0.45460  0.04540  Biso   1.000  O 
  O27      1.0000 0.45460  0.54540  0.95460  Biso   1.000  O 
  O28      1.0000 0.54540  0.45460  0.95460  Biso   1.000  O 
  O29      1.0000 0.54540  0.54540  0.95460  Biso   1.000  O 
  O30      1.0000 0.45460  0.45460  0.95460  Biso   1.000  O 
  O31      1.0000 0.54540  0.45460  0.04540  Biso   1.000  O 
  O32      1.0000 0.45460  0.54540  0.04540  Biso   1.000  O 
  O33      1.0000 0.13260  0.00000  0.07190  Biso   1.000  O 
  C1       1.0000 0.11720  0.00000  0.11720  Biso   1.000  C 
  O34      1.0000 0.07190  0.00000  0.13260  Biso   1.000  O 
  C2       1.0000 0.15650  0.00000  0.15650  Biso   1.000  C 
  C3       1.0000 0.20580  0.00000  0.14470  Biso   1.000  C 
  C4       1.0000 0.14470  0.00000  0.20580  Biso   1.000  C 
  C5       1.0000 0.24200  0.00000  0.17950  Biso   1.000  C 
  H1       1.0000 0.21490  0.00000  0.11140  Biso   1.000  H 
  C6       1.0000 0.17950  0.00000  0.24200  Biso   1.000  C 
  H2       1.0000 0.11140  0.00000  0.21490  Biso   1.000  H 
  C7       1.0000 0.23070  0.00000  0.23070  Biso   1.000  C 
  C8       1.0000 0.26930  0.00000  0.26930  Biso   1.000  C 
  H3       1.0000 0.27510  0.00000  0.16950  Biso   1.000  H 
  C9       1.0000 0.32050  0.00000  0.25800  Biso   1.000  C 
  H4       1.0000 0.16950  0.00000  0.27510  Biso   1.000  H 
  C10      1.0000 0.25800  0.00000  0.32050  Biso   1.000  C 
  C11      1.0000 0.35530  0.00000  0.29420  Biso   1.000  C 
  N1       1.0000 0.33708  0.02595  0.21036  Biso   1.000  N 
  C12      1.0000 0.29420  0.00000  0.35530  Biso   1.000  C 
  H5       1.0000 0.22490  0.00000  0.33050  Biso   1.000  H 
  C13      1.0000 0.34350  0.00000  0.34350  Biso   1.000  C 
  C14      1.0000 0.38280  0.00000  0.38280  Biso   1.000  C 
  H6       1.0000 0.38860  0.00000  0.28510  Biso   1.000  H 
  H7       1.0000 0.28510  0.00000  0.38860  Biso   1.000  H 
  O35      1.0000 0.42810  0.00000  0.36740  Biso   1.000  O 
  O36      1.0000 0.36740  0.00000  0.42810  Biso   1.000  O 
  H8       1.0000 0.34916  0.06204  0.22012  Biso   1.000  H 
  C15      1.0000 0.37607  0.99624  0.18388  Biso   1.000  C 
  C16      1.0000 0.42367  0.02595  0.17600  Biso   1.000  C 
  C17      1.0000 0.41514  0.07309  0.14279  Biso   1.000  C 
  H9       1.0000 0.37559  0.08539  0.14428  Biso   1.000  H 
  H10      1.0000 0.42204  0.06696  0.10387  Biso   1.000  H 
  H11      1.0000 0.43910  0.10488  0.15829  Biso   1.000  H 
  H12      1.0000 0.35882  0.98424  0.14915  Biso   1.000  H 
  H13      1.0000 0.38641  0.96216  0.20473  Biso   1.000  H 
  H14      1.0000 0.44620  0.99843  0.15440  Biso   1.000  H 
  H15      1.0000 0.44197  0.03580  0.21243  Biso   1.000  H 
  O37      1.0000 0.86740  0.00000  0.07190  Biso   1.000  O 
  C18      1.0000 0.88280  0.00000  0.11720  Biso   1.000  C 
  O38      1.0000 0.92810  0.00000  0.13260  Biso   1.000  O 
  C19      1.0000 0.84350  0.00000  0.15650  Biso   1.000  C 
  C20      1.0000 0.79420  0.00000  0.14470  Biso   1.000  C 
  C21      1.0000 0.85530  0.00000  0.20580  Biso   1.000  C 
  C22      1.0000 0.75800  0.00000  0.17950  Biso   1.000  C 
  H16      1.0000 0.78510  0.00000  0.11140  Biso   1.000  H 
  C23      1.0000 0.82050  0.00000  0.24200  Biso   1.000  C 
  H17      1.0000 0.88860  0.00000  0.21490  Biso   1.000  H 
  C24      1.0000 0.76930  0.00000  0.23070  Biso   1.000  C 
  C25      1.0000 0.73070  0.00000  0.26930  Biso   1.000  C 
  H18      1.0000 0.72490  0.00000  0.16950  Biso   1.000  H 
  C26      1.0000 0.67950  0.00000  0.25800  Biso   1.000  C 
  H19      1.0000 0.83050  0.00000  0.27510  Biso   1.000  H 
  C27      1.0000 0.74200  0.00000  0.32050  Biso   1.000  C 
  C28      1.0000 0.64470  0.00000  0.29420  Biso   1.000  C 
  N2       1.0000 0.66292  0.97405  0.21036  Biso   1.000  N 
  C29      1.0000 0.70580  0.00000  0.35530  Biso   1.000  C 
  H20      1.0000 0.77510  0.00000  0.33050  Biso   1.000  H 
  C30      1.0000 0.65650  0.00000  0.34350  Biso   1.000  C 
  C31      1.0000 0.61720  0.00000  0.38280  Biso   1.000  C 
  H21      1.0000 0.61140  0.00000  0.28510  Biso   1.000  H 
  H22      1.0000 0.71490  0.00000  0.38860  Biso   1.000  H 
  O39      1.0000 0.57190  0.00000  0.36740  Biso   1.000  O 
  O40      1.0000 0.63260  0.00000  0.42810  Biso   1.000  O 
  H23      1.0000 0.65084  0.93796  0.22012  Biso   1.000  H 
  C32      1.0000 0.62393  0.00376  0.18388  Biso   1.000  C 
  C33      1.0000 0.57633  0.97405  0.17600  Biso   1.000  C 
  C34      1.0000 0.58486  0.92691  0.14279  Biso   1.000  C 
  H24      1.0000 0.62441  0.91461  0.14428  Biso   1.000  H 
  H25      1.0000 0.57796  0.93304  0.10387  Biso   1.000  H 
  H26      1.0000 0.56090  0.89512  0.15829  Biso   1.000  H 
  H27      1.0000 0.64118  0.01576  0.14915  Biso   1.000  H 
  H28      1.0000 0.61359  0.03784  0.20473  Biso   1.000  H 
  H29      1.0000 0.55380  0.00157  0.15440  Biso   1.000  H 
  H30      1.0000 0.55803  0.96420  0.21243  Biso   1.000  H 
  O41      1.0000 0.86740  0.00000  0.92810  Biso   1.000  O 
  C35      1.0000 0.88280  0.00000  0.88280  Biso   1.000  C 
  O42      1.0000 0.92810  0.00000  0.86740  Biso   1.000  O 
  C36      1.0000 0.84350  0.00000  0.84350  Biso   1.000  C 
  C37      1.0000 0.79420  0.00000  0.85530  Biso   1.000  C 
  C38      1.0000 0.85530  0.00000  0.79420  Biso   1.000  C 
  C39      1.0000 0.75800  0.00000  0.82050  Biso   1.000  C 
  H31      1.0000 0.78510  0.00000  0.88860  Biso   1.000  H 
  C40      1.0000 0.82050  0.00000  0.75800  Biso   1.000  C 
  H32      1.0000 0.88860  0.00000  0.78510  Biso   1.000  H 
  C41      1.0000 0.76930  0.00000  0.76930  Biso   1.000  C 
  C42      1.0000 0.73070  0.00000  0.73070  Biso   1.000  C 
  H33      1.0000 0.72490  0.00000  0.83050  Biso   1.000  H 
  C43      1.0000 0.67950  0.00000  0.74200  Biso   1.000  C 
  H34      1.0000 0.83050  0.00000  0.72490  Biso   1.000  H 
  C44      1.0000 0.74200  0.00000  0.67950  Biso   1.000  C 
  C45      1.0000 0.64470  0.00000  0.70580  Biso   1.000  C 
  N3       1.0000 0.66292  0.02595  0.78964  Biso   1.000  N 
  C46      1.0000 0.70580  0.00000  0.64470  Biso   1.000  C 
  H35      1.0000 0.77510  0.00000  0.66950  Biso   1.000  H 
  C47      1.0000 0.65650  0.00000  0.65650  Biso   1.000  C 
  C48      1.0000 0.61720  0.00000  0.61720  Biso   1.000  C 
  H36      1.0000 0.61140  0.00000  0.71490  Biso   1.000  H 
  H37      1.0000 0.71490  0.00000  0.61140  Biso   1.000  H 
  O43      1.0000 0.57190  0.00000  0.63260  Biso   1.000  O 
  O44      1.0000 0.63260  0.00000  0.57190  Biso   1.000  O 
  H38      1.0000 0.65084  0.06204  0.77987  Biso   1.000  H 
  C49      1.0000 0.62393  0.99624  0.81612  Biso   1.000  C 
  C50      1.0000 0.57633  0.02595  0.82400  Biso   1.000  C 
  C51      1.0000 0.58486  0.07309  0.85721  Biso   1.000  C 
  H39      1.0000 0.62441  0.08539  0.85571  Biso   1.000  H 
  H40      1.0000 0.57796  0.06696  0.89613  Biso   1.000  H 
  H41      1.0000 0.56090  0.10488  0.84171  Biso   1.000  H 
  H42      1.0000 0.64118  0.98424  0.85084  Biso   1.000  H 
  H43      1.0000 0.61359  0.96216  0.79527  Biso   1.000  H 
  H44      1.0000 0.55380  0.99843  0.84560  Biso   1.000  H 
  H45      1.0000 0.55803  0.03580  0.78757  Biso   1.000  H 
  O45      1.0000 0.13260  0.00000  0.92810  Biso   1.000  O 
  C52      1.0000 0.11720  0.00000  0.88280  Biso   1.000  C 
  O46      1.0000 0.07190  0.00000  0.86740  Biso   1.000  O 
  C53      1.0000 0.15650  0.00000  0.84350  Biso   1.000  C 
  C54      1.0000 0.20580  0.00000  0.85530  Biso   1.000  C 
  C55      1.0000 0.14470  0.00000  0.79420  Biso   1.000  C 
  C56      1.0000 0.24200  0.00000  0.82050  Biso   1.000  C 
  H46      1.0000 0.21490  0.00000  0.88860  Biso   1.000  H 
  C57      1.0000 0.17950  0.00000  0.75800  Biso   1.000  C 
  H47      1.0000 0.11140  0.00000  0.78510  Biso   1.000  H 
  C58      1.0000 0.23070  0.00000  0.76930  Biso   1.000  C 
  C59      1.0000 0.26930  0.00000  0.73070  Biso   1.000  C 
  H48      1.0000 0.27510  0.00000  0.83050  Biso   1.000  H 
  C60      1.0000 0.32050  0.00000  0.74200  Biso   1.000  C 
  H49      1.0000 0.16950  0.00000  0.72490  Biso   1.000  H 
  C61      1.0000 0.25800  0.00000  0.67950  Biso   1.000  C 
  C62      1.0000 0.35530  0.00000  0.70580  Biso   1.000  C 
  N4       1.0000 0.33708  0.97405  0.78964  Biso   1.000  N 
  C63      1.0000 0.29420  0.00000  0.64470  Biso   1.000  C 
  H50      1.0000 0.22490  0.00000  0.66950  Biso   1.000  H 
  C64      1.0000 0.34350  0.00000  0.65650  Biso   1.000  C 
  C65      1.0000 0.38280  0.00000  0.61720  Biso   1.000  C 
  H51      1.0000 0.38860  0.00000  0.71490  Biso   1.000  H 
  H52      1.0000 0.28510  0.00000  0.61140  Biso   1.000  H 
  O47      1.0000 0.42810  0.00000  0.63260  Biso   1.000  O 
  O48      1.0000 0.36740  0.00000  0.57190  Biso   1.000  O 
  H53      1.0000 0.34916  0.93796  0.77987  Biso   1.000  H 
  C66      1.0000 0.37607  0.00376  0.81612  Biso   1.000  C 
  C67      1.0000 0.42367  0.97405  0.82400  Biso   1.000  C 
  C68      1.0000 0.41514  0.92691  0.85721  Biso   1.000  C 
  H54      1.0000 0.37559  0.91461  0.85571  Biso   1.000  H 
  H55      1.0000 0.42204  0.93304  0.89613  Biso   1.000  H 
  H56      1.0000 0.43910  0.89512  0.84171  Biso   1.000  H 
  H57      1.0000 0.35882  0.01576  0.85084  Biso   1.000  H 
  H58      1.0000 0.38641  0.03784  0.79527  Biso   1.000  H 
  H59      1.0000 0.44620  0.00157  0.84560  Biso   1.000  H 
  H60      1.0000 0.44197  0.96420  0.78757  Biso   1.000  H 
  O49      1.0000 0.07190  0.13260  0.00000  Biso   1.000  O 
  C69      1.0000 0.11720  0.11720  0.00000  Biso   1.000  C 
  O50      1.0000 0.13260  0.07190  0.00000  Biso   1.000  O 
  C70      1.0000 0.15650  0.15650  0.00000  Biso   1.000  C 
  C71      1.0000 0.14470  0.20580  0.00000  Biso   1.000  C 
  C72      1.0000 0.20580  0.14470  0.00000  Biso   1.000  C 
  C73      1.0000 0.17950  0.24200  0.00000  Biso   1.000  C 
  H61      1.0000 0.11140  0.21490  0.00000  Biso   1.000  H 
  C74      1.0000 0.24200  0.17950  0.00000  Biso   1.000  C 
  H62      1.0000 0.21490  0.11140  0.00000  Biso   1.000  H 
  C75      1.0000 0.23070  0.23070  0.00000  Biso   1.000  C 
  C76      1.0000 0.26930  0.26930  0.00000  Biso   1.000  C 
  H63      1.0000 0.16950  0.27510  0.00000  Biso   1.000  H 
  C77      1.0000 0.25800  0.32050  0.00000  Biso   1.000  C 
  H64      1.0000 0.27510  0.16950  0.00000  Biso   1.000  H 
  C78      1.0000 0.32050  0.25800  0.00000  Biso   1.000  C 
  C79      1.0000 0.29420  0.35530  0.00000  Biso   1.000  C 
  N5       1.0000 0.20577  0.34250  0.99601  Biso   1.000  N 
  C80      1.0000 0.35530  0.29420  0.00000  Biso   1.000  C 
  H65      1.0000 0.33050  0.22490  0.00000  Biso   1.000  H 
  C81      1.0000 0.34350  0.34350  0.00000  Biso   1.000  C 
  C82      1.0000 0.38280  0.38280  0.00000  Biso   1.000  C 
  H66      1.0000 0.28510  0.38860  0.00000  Biso   1.000  H 
  H67      1.0000 0.38860  0.28510  0.00000  Biso   1.000  H 
  O51      1.0000 0.36740  0.42810  0.00000  Biso   1.000  O 
  O52      1.0000 0.42810  0.36740  0.00000  Biso   1.000  O 
  H68      1.0000 0.20072  0.36586  0.02584  Biso   1.000  H 
  C83      1.0000 0.19785  0.36943  0.94859  Biso   1.000  C 
  C84      1.0000 0.14348  0.38597  0.94387  Biso   1.000  C 
  C85      1.0000 0.13923  0.43393  0.91449  Biso   1.000  C 
  H69      1.0000 0.16105  0.46231  0.93498  Biso   1.000  H 
  H70      1.0000 0.10142  0.44732  0.90732  Biso   1.000  H 
  H71      1.0000 0.15862  0.42800  0.88013  Biso   1.000  H 
  H72      1.0000 0.21024  0.34438  0.91826  Biso   1.000  H 
  H73      1.0000 0.22127  0.40226  0.94784  Biso   1.000  H 
  H74      1.0000 0.12705  0.39147  0.98176  Biso   1.000  H 
  H75      1.0000 0.12161  0.35623  0.92334  Biso   1.000  H 
  O53      1.0000 0.07190  0.86740  0.00000  Biso   1.000  O 
  C86      1.0000 0.11720  0.88280  0.00000  Biso   1.000  C 
  O54      1.0000 0.13260  0.92810  0.00000  Biso   1.000  O 
  C87      1.0000 0.15650  0.84350  0.00000  Biso   1.000  C 
  C88      1.0000 0.14470  0.79420  0.00000  Biso   1.000  C 
  C89      1.0000 0.20580  0.85530  0.00000  Biso   1.000  C 
  C90      1.0000 0.17950  0.75800  0.00000  Biso   1.000  C 
  H76      1.0000 0.11140  0.78510  0.00000  Biso   1.000  H 
  C91      1.0000 0.24200  0.82050  0.00000  Biso   1.000  C 
  H77      1.0000 0.21490  0.88860  0.00000  Biso   1.000  H 
  C92      1.0000 0.23070  0.76930  0.00000  Biso   1.000  C 
  C93      1.0000 0.26930  0.73070  0.00000  Biso   1.000  C 
  H78      1.0000 0.16950  0.72490  0.00000  Biso   1.000  H 
  C94      1.0000 0.25800  0.67950  0.00000  Biso   1.000  C 
  H79      1.0000 0.27510  0.83050  0.00000  Biso   1.000  H 
  C95      1.0000 0.32050  0.74200  0.00000  Biso   1.000  C 
  C96      1.0000 0.29420  0.64470  0.00000  Biso   1.000  C 
  N6       1.0000 0.20577  0.65750  0.00399  Biso   1.000  N 
  C97      1.0000 0.35530  0.70580  0.00000  Biso   1.000  C 
  H80      1.0000 0.33050  0.77510  0.00000  Biso   1.000  H 
  C98      1.0000 0.34350  0.65650  0.00000  Biso   1.000  C 
  C99      1.0000 0.38280  0.61720  0.00000  Biso   1.000  C 
  H81      1.0000 0.28510  0.61140  0.00000  Biso   1.000  H 
  H82      1.0000 0.38860  0.71490  0.00000  Biso   1.000  H 
  O55      1.0000 0.36740  0.57190  0.00000  Biso   1.000  O 
  O56      1.0000 0.42810  0.63260  0.00000  Biso   1.000  O 
  H83      1.0000 0.20072  0.63414  0.97416  Biso   1.000  H 
  C100     1.0000 0.19785  0.63057  0.05141  Biso   1.000  C 
  C101     1.0000 0.14348  0.61403  0.05613  Biso   1.000  C 
  C102     1.0000 0.13923  0.56607  0.08551  Biso   1.000  C 
  H84      1.0000 0.16105  0.53769  0.06502  Biso   1.000  H 
  H85      1.0000 0.10142  0.55268  0.09268  Biso   1.000  H 
  H86      1.0000 0.15862  0.57200  0.11987  Biso   1.000  H 
  H87      1.0000 0.21024  0.65562  0.08174  Biso   1.000  H 
  H88      1.0000 0.22127  0.59774  0.05216  Biso   1.000  H 
  H89      1.0000 0.12705  0.60853  0.01824  Biso   1.000  H 
  H90      1.0000 0.12161  0.64376  0.07666  Biso   1.000  H 
  O57      1.0000 0.92810  0.86740  0.00000  Biso   1.000  O 
  C103     1.0000 0.88280  0.88280  0.00000  Biso   1.000  C 
  O58      1.0000 0.86740  0.92810  0.00000  Biso   1.000  O 
  C104     1.0000 0.84350  0.84350  0.00000  Biso   1.000  C 
  C105     1.0000 0.85530  0.79420  0.00000  Biso   1.000  C 
  C106     1.0000 0.79420  0.85530  0.00000  Biso   1.000  C 
  C107     1.0000 0.82050  0.75800  0.00000  Biso   1.000  C 
  H91      1.0000 0.88860  0.78510  0.00000  Biso   1.000  H 
  C108     1.0000 0.75800  0.82050  0.00000  Biso   1.000  C 
  H92      1.0000 0.78510  0.88860  0.00000  Biso   1.000  H 
  C109     1.0000 0.76930  0.76930  0.00000  Biso   1.000  C 
  C110     1.0000 0.73070  0.73070  0.00000  Biso   1.000  C 
  H93      1.0000 0.83050  0.72490  0.00000  Biso   1.000  H 
  C111     1.0000 0.74200  0.67950  0.00000  Biso   1.000  C 
  H94      1.0000 0.72490  0.83050  0.00000  Biso   1.000  H 
  C112     1.0000 0.67950  0.74200  0.00000  Biso   1.000  C 
  C113     1.0000 0.70580  0.64470  0.00000  Biso   1.000  C 
  N7       1.0000 0.79423  0.65750  0.99601  Biso   1.000  N 
  C114     1.0000 0.64470  0.70580  0.00000  Biso   1.000  C 
  H95      1.0000 0.66950  0.77510  0.00000  Biso   1.000  H 
  C115     1.0000 0.65650  0.65650  0.00000  Biso   1.000  C 
  C116     1.0000 0.61720  0.61720  0.00000  Biso   1.000  C 
  H96      1.0000 0.71490  0.61140  0.00000  Biso   1.000  H 
  H97      1.0000 0.61140  0.71490  0.00000  Biso   1.000  H 
  O59      1.0000 0.63260  0.57190  0.00000  Biso   1.000  O 
  O60      1.0000 0.57190  0.63260  0.00000  Biso   1.000  O 
  H98      1.0000 0.79928  0.63414  0.02584  Biso   1.000  H 
  C117     1.0000 0.80215  0.63057  0.94859  Biso   1.000  C 
  C118     1.0000 0.85652  0.61403  0.94387  Biso   1.000  C 
  C119     1.0000 0.86077  0.56607  0.91449  Biso   1.000  C 
  H99      1.0000 0.83895  0.53769  0.93498  Biso   1.000  H 
  H100     1.0000 0.89858  0.55268  0.90732  Biso   1.000  H 
  H101     1.0000 0.84138  0.57200  0.88013  Biso   1.000  H 
  H102     1.0000 0.78976  0.65562  0.91826  Biso   1.000  H 
  H103     1.0000 0.77873  0.59774  0.94784  Biso   1.000  H 
  H104     1.0000 0.87295  0.60853  0.98176  Biso   1.000  H 
  H105     1.0000 0.87839  0.64376  0.92334  Biso   1.000  H 
  O61      1.0000 0.92810  0.13260  0.00000  Biso   1.000  O 
  C120     1.0000 0.88280  0.11720  0.00000  Biso   1.000  C 
  O62      1.0000 0.86740  0.07190  0.00000  Biso   1.000  O 
  C121     1.0000 0.84350  0.15650  0.00000  Biso   1.000  C 
  C122     1.0000 0.85530  0.20580  0.00000  Biso   1.000  C 
  C123     1.0000 0.79420  0.14470  0.00000  Biso   1.000  C 
  C124     1.0000 0.82050  0.24200  0.00000  Biso   1.000  C 
  H106     1.0000 0.88860  0.21490  0.00000  Biso   1.000  H 
  C125     1.0000 0.75800  0.17950  0.00000  Biso   1.000  C 
  H107     1.0000 0.78510  0.11140  0.00000  Biso   1.000  H 
  C126     1.0000 0.76930  0.23070  0.00000  Biso   1.000  C 
  C127     1.0000 0.73070  0.26930  0.00000  Biso   1.000  C 
  H108     1.0000 0.83050  0.27510  0.00000  Biso   1.000  H 
  C128     1.0000 0.74200  0.32050  0.00000  Biso   1.000  C 
  H109     1.0000 0.72490  0.16950  0.00000  Biso   1.000  H 
  C129     1.0000 0.67950  0.25800  0.00000  Biso   1.000  C 
  C130     1.0000 0.70580  0.35530  0.00000  Biso   1.000  C 
  N8       1.0000 0.79423  0.34250  0.00399  Biso   1.000  N 
  C131     1.0000 0.64470  0.29420  0.00000  Biso   1.000  C 
  H110     1.0000 0.66950  0.22490  0.00000  Biso   1.000  H 
  C132     1.0000 0.65650  0.34350  0.00000  Biso   1.000  C 
  C133     1.0000 0.61720  0.38280  0.00000  Biso   1.000  C 
  H111     1.0000 0.71490  0.38860  0.00000  Biso   1.000  H 
  H112     1.0000 0.61140  0.28510  0.00000  Biso   1.000  H 
  O63      1.0000 0.63260  0.42810  0.00000  Biso   1.000  O 
  O64      1.0000 0.57190  0.36740  0.00000  Biso   1.000  O 
  H113     1.0000 0.79928  0.36586  0.97416  Biso   1.000  H 
  C134     1.0000 0.80215  0.36943  0.05141  Biso   1.000  C 
  C135     1.0000 0.85652  0.38597  0.05613  Biso   1.000  C 
  C136     1.0000 0.86077  0.43393  0.08551  Biso   1.000  C 
  H114     1.0000 0.83895  0.46231  0.06502  Biso   1.000  H 
  H115     1.0000 0.89858  0.44732  0.09268  Biso   1.000  H 
  H116     1.0000 0.84138  0.42800  0.11987  Biso   1.000  H 
  H117     1.0000 0.78976  0.34438  0.08174  Biso   1.000  H 
  H118     1.0000 0.77873  0.40226  0.05216  Biso   1.000  H 
  H119     1.0000 0.87295  0.39147  0.01824  Biso   1.000  H 
  H120     1.0000 0.87839  0.35623  0.07666  Biso   1.000  H 
  O65      1.0000 0.00000  0.07190  0.13260  Biso   1.000  O 
  C137     1.0000 0.00000  0.11720  0.11720  Biso   1.000  C 
  O66      1.0000 0.00000  0.13260  0.07190  Biso   1.000  O 
  C138     1.0000 0.00000  0.15650  0.15650  Biso   1.000  C 
  C139     1.0000 0.00000  0.14470  0.20580  Biso   1.000  C 
  C140     1.0000 0.00000  0.20580  0.14470  Biso   1.000  C 
  C141     1.0000 0.00000  0.17950  0.24200  Biso   1.000  C 
  H121     1.0000 0.00000  0.11140  0.21490  Biso   1.000  H 
  C142     1.0000 0.00000  0.24200  0.17950  Biso   1.000  C 
  H122     1.0000 0.00000  0.21490  0.11140  Biso   1.000  H 
  C143     1.0000 0.00000  0.23070  0.23070  Biso   1.000  C 
  C144     1.0000 0.00000  0.26930  0.26930  Biso   1.000  C 
  H123     1.0000 0.00000  0.16950  0.27510  Biso   1.000  H 
  C145     1.0000 0.00000  0.25800  0.32050  Biso   1.000  C 
  H124     1.0000 0.00000  0.27510  0.16950  Biso   1.000  H 
  C146     1.0000 0.00000  0.32050  0.25800  Biso   1.000  C 
  C147     1.0000 0.00000  0.29420  0.35530  Biso   1.000  C 
  N9       1.0000 0.02455  0.21004  0.33738  Biso   1.000  N 
  C148     1.0000 0.00000  0.35530  0.29420  Biso   1.000  C 
  H125     1.0000 0.00000  0.33050  0.22490  Biso   1.000  H 
  C149     1.0000 0.00000  0.34350  0.34350  Biso   1.000  C 
  C150     1.0000 0.00000  0.38280  0.38280  Biso   1.000  C 
  H126     1.0000 0.00000  0.28510  0.38860  Biso   1.000  H 
  H127     1.0000 0.00000  0.38860  0.28510  Biso   1.000  H 
  O67      1.0000 0.00000  0.36740  0.42810  Biso   1.000  O 
  O68      1.0000 0.00000  0.42810  0.36740  Biso   1.000  O 
  H128     1.0000 0.06064  0.21941  0.34844  Biso   1.000  H 
  C151     1.0000 0.99341  0.18490  0.37595  Biso   1.000  C 
  C152     1.0000 0.02273  0.17282  0.42199  Biso   1.000  C 
  C153     1.0000 0.07370  0.14852  0.41201  Biso   1.000  C 
  H129     1.0000 0.06790  0.12008  0.38248  Biso   1.000  H 
  H130     1.0000 0.08872  0.12844  0.44486  Biso   1.000  H 
  H131     1.0000 0.10188  0.17821  0.39936  Biso   1.000  H 
  H132     1.0000 0.97873  0.15220  0.35689  Biso   1.000  H 
  H133     1.0000 0.96093  0.20743  0.38764  Biso   1.000  H 
  H134     1.0000 0.99856  0.14369  0.43846  Biso   1.000  H 
  H135     1.0000 0.02600  0.20607  0.44719  Biso   1.000  H 
  O69      1.0000 0.00000  0.07190  0.86740  Biso   1.000  O 
  C154     1.0000 0.00000  0.11720  0.88280  Biso   1.000  C 
  O70      1.0000 0.00000  0.13260  0.92810  Biso   1.000  O 
  C155     1.0000 0.00000  0.15650  0.84350  Biso   1.000  C 
  C156     1.0000 0.00000  0.14470  0.79420  Biso   1.000  C 
  C157     1.0000 0.00000  0.20580  0.85530  Biso   1.000  C 
  C158     1.0000 0.00000  0.17950  0.75800  Biso   1.000  C 
  H136     1.0000 0.00000  0.11140  0.78510  Biso   1.000  H 
  C159     1.0000 0.00000  0.24200  0.82050  Biso   1.000  C 
  H137     1.0000 0.00000  0.21490  0.88860  Biso   1.000  H 
  C160     1.0000 0.00000  0.23070  0.76930  Biso   1.000  C 
  C161     1.0000 0.00000  0.26930  0.73070  Biso   1.000  C 
  H138     1.0000 0.00000  0.16950  0.72490  Biso   1.000  H 
  C162     1.0000 0.00000  0.25800  0.67950  Biso   1.000  C 
  H139     1.0000 0.00000  0.27510  0.83050  Biso   1.000  H 
  C163     1.0000 0.00000  0.32050  0.74200  Biso   1.000  C 
  C164     1.0000 0.00000  0.29420  0.64470  Biso   1.000  C 
  N10      1.0000 0.97545  0.21004  0.66262  Biso   1.000  N 
  C165     1.0000 0.00000  0.35530  0.70580  Biso   1.000  C 
  H140     1.0000 0.00000  0.33050  0.77510  Biso   1.000  H 
  C166     1.0000 0.00000  0.34350  0.65650  Biso   1.000  C 
  C167     1.0000 0.00000  0.38280  0.61720  Biso   1.000  C 
  H141     1.0000 0.00000  0.28510  0.61140  Biso   1.000  H 
  H142     1.0000 0.00000  0.38860  0.71490  Biso   1.000  H 
  O71      1.0000 0.00000  0.36740  0.57190  Biso   1.000  O 
  O72      1.0000 0.00000  0.42810  0.63260  Biso   1.000  O 
  H143     1.0000 0.93936  0.21941  0.65156  Biso   1.000  H 
  C168     1.0000 0.00659  0.18490  0.62405  Biso   1.000  C 
  C169     1.0000 0.97727  0.17282  0.57801  Biso   1.000  C 
  C170     1.0000 0.92631  0.14852  0.58799  Biso   1.000  C 
  H144     1.0000 0.93211  0.12008  0.61752  Biso   1.000  H 
  H145     1.0000 0.91128  0.12844  0.55514  Biso   1.000  H 
  H146     1.0000 0.89812  0.17821  0.60064  Biso   1.000  H 
  H147     1.0000 0.02127  0.15220  0.64311  Biso   1.000  H 
  H148     1.0000 0.03907  0.20743  0.61236  Biso   1.000  H 
  H149     1.0000 0.00144  0.14369  0.56154  Biso   1.000  H 
  H150     1.0000 0.97400  0.20607  0.55281  Biso   1.000  H 
  O73      1.0000 0.00000  0.92810  0.86740  Biso   1.000  O 
  C171     1.0000 0.00000  0.88280  0.88280  Biso   1.000  C 
  O74      1.0000 0.00000  0.86740  0.92810  Biso   1.000  O 
  C172     1.0000 0.00000  0.84350  0.84350  Biso   1.000  C 
  C173     1.0000 0.00000  0.85530  0.79420  Biso   1.000  C 
  C174     1.0000 0.00000  0.79420  0.85530  Biso   1.000  C 
  C175     1.0000 0.00000  0.82050  0.75800  Biso   1.000  C 
  H151     1.0000 0.00000  0.88860  0.78510  Biso   1.000  H 
  C176     1.0000 0.00000  0.75800  0.82050  Biso   1.000  C 
  H152     1.0000 0.00000  0.78510  0.88860  Biso   1.000  H 
  C177     1.0000 0.00000  0.76930  0.76930  Biso   1.000  C 
  C178     1.0000 0.00000  0.73070  0.73070  Biso   1.000  C 
  H153     1.0000 0.00000  0.83050  0.72490  Biso   1.000  H 
  C179     1.0000 0.00000  0.74200  0.67950  Biso   1.000  C 
  H154     1.0000 0.00000  0.72490  0.83050  Biso   1.000  H 
  C180     1.0000 0.00000  0.67950  0.74200  Biso   1.000  C 
  C181     1.0000 0.00000  0.70580  0.64470  Biso   1.000  C 
  N11      1.0000 0.02455  0.78996  0.66262  Biso   1.000  N 
  C182     1.0000 0.00000  0.64470  0.70580  Biso   1.000  C 
  H155     1.0000 0.00000  0.66950  0.77510  Biso   1.000  H 
  C183     1.0000 0.00000  0.65650  0.65650  Biso   1.000  C 
  C184     1.0000 0.00000  0.61720  0.61720  Biso   1.000  C 
  H156     1.0000 0.00000  0.71490  0.61140  Biso   1.000  H 
  H157     1.0000 0.00000  0.61140  0.71490  Biso   1.000  H 
  O75      1.0000 0.00000  0.63260  0.57190  Biso   1.000  O 
  O76      1.0000 0.00000  0.57190  0.63260  Biso   1.000  O 
  H158     1.0000 0.06064  0.78059  0.65156  Biso   1.000  H 
  C185     1.0000 0.99341  0.81510  0.62405  Biso   1.000  C 
  C186     1.0000 0.02273  0.82718  0.57801  Biso   1.000  C 
  C187     1.0000 0.07370  0.85148  0.58799  Biso   1.000  C 
  H159     1.0000 0.06790  0.87992  0.61752  Biso   1.000  H 
  H160     1.0000 0.08872  0.87156  0.55514  Biso   1.000  H 
  H161     1.0000 0.10188  0.82179  0.60064  Biso   1.000  H 
  H162     1.0000 0.97873  0.84780  0.64311  Biso   1.000  H 
  H163     1.0000 0.96093  0.79257  0.61236  Biso   1.000  H 
  H164     1.0000 0.99856  0.85631  0.56154  Biso   1.000  H 
  H165     1.0000 0.02600  0.79393  0.55281  Biso   1.000  H 
  O77      1.0000 0.00000  0.92810  0.13260  Biso   1.000  O 
  C188     1.0000 0.00000  0.88280  0.11720  Biso   1.000  C 
  O78      1.0000 0.00000  0.86740  0.07190  Biso   1.000  O 
  C189     1.0000 0.00000  0.84350  0.15650  Biso   1.000  C 
  C190     1.0000 0.00000  0.85530  0.20580  Biso   1.000  C 
  C191     1.0000 0.00000  0.79420  0.14470  Biso   1.000  C 
  C192     1.0000 0.00000  0.82050  0.24200  Biso   1.000  C 
  H166     1.0000 0.00000  0.88860  0.21490  Biso   1.000  H 
  C193     1.0000 0.00000  0.75800  0.17950  Biso   1.000  C 
  H167     1.0000 0.00000  0.78510  0.11140  Biso   1.000  H 
  C194     1.0000 0.00000  0.76930  0.23070  Biso   1.000  C 
  C195     1.0000 0.00000  0.73070  0.26930  Biso   1.000  C 
  H168     1.0000 0.00000  0.83050  0.27510  Biso   1.000  H 
  C196     1.0000 0.00000  0.74200  0.32050  Biso   1.000  C 
  H169     1.0000 0.00000  0.72490  0.16950  Biso   1.000  H 
  C197     1.0000 0.00000  0.67950  0.25800  Biso   1.000  C 
  C198     1.0000 0.00000  0.70580  0.35530  Biso   1.000  C 
  N12      1.0000 0.97545  0.78996  0.33738  Biso   1.000  N 
  C199     1.0000 0.00000  0.64470  0.29420  Biso   1.000  C 
  H170     1.0000 0.00000  0.66950  0.22490  Biso   1.000  H 
  C200     1.0000 0.00000  0.65650  0.34350  Biso   1.000  C 
  C201     1.0000 0.00000  0.61720  0.38280  Biso   1.000  C 
  H171     1.0000 0.00000  0.71490  0.38860  Biso   1.000  H 
  H172     1.0000 0.00000  0.61140  0.28510  Biso   1.000  H 
  O79      1.0000 0.00000  0.63260  0.42810  Biso   1.000  O 
  O80      1.0000 0.00000  0.57190  0.36740  Biso   1.000  O 
  H173     1.0000 0.93936  0.78059  0.34844  Biso   1.000  H 
  C202     1.0000 0.00659  0.81510  0.37595  Biso   1.000  C 
  C203     1.0000 0.97727  0.82718  0.42199  Biso   1.000  C 
  C204     1.0000 0.92631  0.85148  0.41201  Biso   1.000  C 
  H174     1.0000 0.93211  0.87992  0.38248  Biso   1.000  H 
  H175     1.0000 0.91128  0.87156  0.44486  Biso   1.000  H 
  H176     1.0000 0.89812  0.82179  0.39936  Biso   1.000  H 
  H177     1.0000 0.02127  0.84780  0.35689  Biso   1.000  H 
  H178     1.0000 0.03907  0.79257  0.38764  Biso   1.000  H 
  H179     1.0000 0.00144  0.85631  0.43846  Biso   1.000  H 
  H180     1.0000 0.97400  0.79393  0.44719  Biso   1.000  H 
  O81      1.0000 0.13260  0.50000  0.57190  Biso   1.000  O 
  C205     1.0000 0.11720  0.50000  0.61720  Biso   1.000  C 
  O82      1.0000 0.07190  0.50000  0.63260  Biso   1.000  O 
  C206     1.0000 0.15650  0.50000  0.65650  Biso   1.000  C 
  C207     1.0000 0.20580  0.50000  0.64470  Biso   1.000  C 
  C208     1.0000 0.14470  0.50000  0.70580  Biso   1.000  C 
  C209     1.0000 0.24200  0.50000  0.67950  Biso   1.000  C 
  H181     1.0000 0.21490  0.50000  0.61140  Biso   1.000  H 
  C210     1.0000 0.17950  0.50000  0.74200  Biso   1.000  C 
  H182     1.0000 0.11140  0.50000  0.71490  Biso   1.000  H 
  C211     1.0000 0.23070  0.50000  0.73070  Biso   1.000  C 
  C212     1.0000 0.26930  0.50000  0.76930  Biso   1.000  C 
  H183     1.0000 0.27510  0.50000  0.66950  Biso   1.000  H 
  C213     1.0000 0.32050  0.50000  0.75800  Biso   1.000  C 
  H184     1.0000 0.16950  0.50000  0.77510  Biso   1.000  H 
  C214     1.0000 0.25800  0.50000  0.82050  Biso   1.000  C 
  C215     1.0000 0.35530  0.50000  0.79420  Biso   1.000  C 
  N13      1.0000 0.34251  0.49511  0.70566  Biso   1.000  N 
  C216     1.0000 0.29420  0.50000  0.85530  Biso   1.000  C 
  H185     1.0000 0.22490  0.50000  0.83050  Biso   1.000  H 
  C217     1.0000 0.34350  0.50000  0.84350  Biso   1.000  C 
  C218     1.0000 0.38280  0.50000  0.88280  Biso   1.000  C 
  H186     1.0000 0.38860  0.50000  0.78510  Biso   1.000  H 
  H187     1.0000 0.28510  0.50000  0.88860  Biso   1.000  H 
  O83      1.0000 0.42810  0.50000  0.86740  Biso   1.000  O 
  O84      1.0000 0.36740  0.50000  0.92810  Biso   1.000  O 
  H188     1.0000 0.36507  0.52540  0.69977  Biso   1.000  H 
  C219     1.0000 0.37081  0.44827  0.69872  Biso   1.000  C 
  C220     1.0000 0.38540  0.44139  0.64405  Biso   1.000  C 
  C221     1.0000 0.43402  0.41301  0.63933  Biso   1.000  C 
  H189     1.0000 0.46255  0.43451  0.65979  Biso   1.000  H 
  H190     1.0000 0.44656  0.40493  0.60138  Biso   1.000  H 
  H191     1.0000 0.42922  0.37907  0.65976  Biso   1.000  H 
  H192     1.0000 0.34767  0.41758  0.71354  Biso   1.000  H 
  H193     1.0000 0.40476  0.44997  0.72046  Biso   1.000  H 
  H194     1.0000 0.38916  0.47855  0.62579  Biso   1.000  H 
  H195     1.0000 0.35538  0.41913  0.62433  Biso   1.000  H 
  O85      1.0000 0.86740  0.50000  0.57190  Biso   1.000  O 
  C222     1.0000 0.88280  0.50000  0.61720  Biso   1.000  C 
  O86      1.0000 0.92810  0.50000  0.63260  Biso   1.000  O 
  C223     1.0000 0.84350  0.50000  0.65650  Biso   1.000  C 
  C224     1.0000 0.79420  0.50000  0.64470  Biso   1.000  C 
  C225     1.0000 0.85530  0.50000  0.70580  Biso   1.000  C 
  C226     1.0000 0.75800  0.50000  0.67950  Biso   1.000  C 
  H196     1.0000 0.78510  0.50000  0.61140  Biso   1.000  H 
  C227     1.0000 0.82050  0.50000  0.74200  Biso   1.000  C 
  H197     1.0000 0.88860  0.50000  0.71490  Biso   1.000  H 
  C228     1.0000 0.76930  0.50000  0.73070  Biso   1.000  C 
  C229     1.0000 0.73070  0.50000  0.76930  Biso   1.000  C 
  H198     1.0000 0.72490  0.50000  0.66950  Biso   1.000  H 
  C230     1.0000 0.67950  0.50000  0.75800  Biso   1.000  C 
  H199     1.0000 0.83050  0.50000  0.77510  Biso   1.000  H 
  C231     1.0000 0.74200  0.50000  0.82050  Biso   1.000  C 
  C232     1.0000 0.64470  0.50000  0.79420  Biso   1.000  C 
  N14      1.0000 0.65749  0.50489  0.70566  Biso   1.000  N 
  C233     1.0000 0.70580  0.50000  0.85530  Biso   1.000  C 
  H200     1.0000 0.77510  0.50000  0.83050  Biso   1.000  H 
  C234     1.0000 0.65650  0.50000  0.84350  Biso   1.000  C 
  C235     1.0000 0.61720  0.50000  0.88280  Biso   1.000  C 
  H201     1.0000 0.61140  0.50000  0.78510  Biso   1.000  H 
  H202     1.0000 0.71490  0.50000  0.88860  Biso   1.000  H 
  O87      1.0000 0.57190  0.50000  0.86740  Biso   1.000  O 
  O88      1.0000 0.63260  0.50000  0.92810  Biso   1.000  O 
  H203     1.0000 0.63493  0.47460  0.69977  Biso   1.000  H 
  C236     1.0000 0.62919  0.55173  0.69872  Biso   1.000  C 
  C237     1.0000 0.61460  0.55861  0.64405  Biso   1.000  C 
  C238     1.0000 0.56598  0.58699  0.63933  Biso   1.000  C 
  H204     1.0000 0.53745  0.56549  0.65979  Biso   1.000  H 
  H205     1.0000 0.55344  0.59507  0.60138  Biso   1.000  H 
  H206     1.0000 0.57078  0.62093  0.65976  Biso   1.000  H 
  H207     1.0000 0.65233  0.58242  0.71354  Biso   1.000  H 
  H208     1.0000 0.59524  0.55003  0.72046  Biso   1.000  H 
  H209     1.0000 0.61084  0.52145  0.62579  Biso   1.000  H 
  H210     1.0000 0.64462  0.58087  0.62433  Biso   1.000  H 
  O89      1.0000 0.86740  0.50000  0.42810  Biso   1.000  O 
  C239     1.0000 0.88280  0.50000  0.38280  Biso   1.000  C 
  O90      1.0000 0.92810  0.50000  0.36740  Biso   1.000  O 
  C240     1.0000 0.84350  0.50000  0.34350  Biso   1.000  C 
  C241     1.0000 0.79420  0.50000  0.35530  Biso   1.000  C 
  C242     1.0000 0.85530  0.50000  0.29420  Biso   1.000  C 
  C243     1.0000 0.75800  0.50000  0.32050  Biso   1.000  C 
  H211     1.0000 0.78510  0.50000  0.38860  Biso   1.000  H 
  C244     1.0000 0.82050  0.50000  0.25800  Biso   1.000  C 
  H212     1.0000 0.88860  0.50000  0.28510  Biso   1.000  H 
  C245     1.0000 0.76930  0.50000  0.26930  Biso   1.000  C 
  C246     1.0000 0.73070  0.50000  0.23070  Biso   1.000  C 
  H213     1.0000 0.72490  0.50000  0.33050  Biso   1.000  H 
  C247     1.0000 0.67950  0.50000  0.24200  Biso   1.000  C 
  H214     1.0000 0.83050  0.50000  0.22490  Biso   1.000  H 
  C248     1.0000 0.74200  0.50000  0.17950  Biso   1.000  C 
  C249     1.0000 0.64470  0.50000  0.20580  Biso   1.000  C 
  N15      1.0000 0.65749  0.49511  0.29434  Biso   1.000  N 
  C250     1.0000 0.70580  0.50000  0.14470  Biso   1.000  C 
  H215     1.0000 0.77510  0.50000  0.16950  Biso   1.000  H 
  C251     1.0000 0.65650  0.50000  0.15650  Biso   1.000  C 
  C252     1.0000 0.61720  0.50000  0.11720  Biso   1.000  C 
  H216     1.0000 0.61140  0.50000  0.21490  Biso   1.000  H 
  H217     1.0000 0.71490  0.50000  0.11140  Biso   1.000  H 
  O91      1.0000 0.57190  0.50000  0.13260  Biso   1.000  O 
  O92      1.0000 0.63260  0.50000  0.07190  Biso   1.000  O 
  H218     1.0000 0.63493  0.52540  0.30023  Biso   1.000  H 
  C253     1.0000 0.62919  0.44827  0.30128  Biso   1.000  C 
  C254     1.0000 0.61460  0.44139  0.35594  Biso   1.000  C 
  C255     1.0000 0.56598  0.41301  0.36067  Biso   1.000  C 
  H219     1.0000 0.53745  0.43451  0.34021  Biso   1.000  H 
  H220     1.0000 0.55344  0.40493  0.39862  Biso   1.000  H 
  H221     1.0000 0.57078  0.37907  0.34023  Biso   1.000  H 
  H222     1.0000 0.65233  0.41758  0.28646  Biso   1.000  H 
  H223     1.0000 0.59524  0.44997  0.27954  Biso   1.000  H 
  H224     1.0000 0.61084  0.47855  0.37421  Biso   1.000  H 
  H225     1.0000 0.64462  0.41913  0.37567  Biso   1.000  H 
  O93      1.0000 0.13260  0.50000  0.42810  Biso   1.000  O 
  C256     1.0000 0.11720  0.50000  0.38280  Biso   1.000  C 
  O94      1.0000 0.07190  0.50000  0.36740  Biso   1.000  O 
  C257     1.0000 0.15650  0.50000  0.34350  Biso   1.000  C 
  C258     1.0000 0.20580  0.50000  0.35530  Biso   1.000  C 
  C259     1.0000 0.14470  0.50000  0.29420  Biso   1.000  C 
  C260     1.0000 0.24200  0.50000  0.32050  Biso   1.000  C 
  H226     1.0000 0.21490  0.50000  0.38860  Biso   1.000  H 
  C261     1.0000 0.17950  0.50000  0.25800  Biso   1.000  C 
  H227     1.0000 0.11140  0.50000  0.28510  Biso   1.000  H 
  C262     1.0000 0.23070  0.50000  0.26930  Biso   1.000  C 
  C263     1.0000 0.26930  0.50000  0.23070  Biso   1.000  C 
  H228     1.0000 0.27510  0.50000  0.33050  Biso   1.000  H 
  C264     1.0000 0.32050  0.50000  0.24200  Biso   1.000  C 
  H229     1.0000 0.16950  0.50000  0.22490  Biso   1.000  H 
  C265     1.0000 0.25800  0.50000  0.17950  Biso   1.000  C 
  C266     1.0000 0.35530  0.50000  0.20580  Biso   1.000  C 
  N16      1.0000 0.34251  0.50489  0.29434  Biso   1.000  N 
  C267     1.0000 0.29420  0.50000  0.14470  Biso   1.000  C 
  H230     1.0000 0.22490  0.50000  0.16950  Biso   1.000  H 
  C268     1.0000 0.34350  0.50000  0.15650  Biso   1.000  C 
  C269     1.0000 0.38280  0.50000  0.11720  Biso   1.000  C 
  H231     1.0000 0.38860  0.50000  0.21490  Biso   1.000  H 
  H232     1.0000 0.28510  0.50000  0.11140  Biso   1.000  H 
  O95      1.0000 0.42810  0.50000  0.13260  Biso   1.000  O 
  O96      1.0000 0.36740  0.50000  0.07190  Biso   1.000  O 
  H233     1.0000 0.36507  0.47460  0.30023  Biso   1.000  H 
  C270     1.0000 0.37081  0.55173  0.30128  Biso   1.000  C 
  C271     1.0000 0.38540  0.55861  0.35594  Biso   1.000  C 
  C272     1.0000 0.43402  0.58699  0.36067  Biso   1.000  C 
  H234     1.0000 0.46255  0.56549  0.34021  Biso   1.000  H 
  H235     1.0000 0.44656  0.59507  0.39862  Biso   1.000  H 
  H236     1.0000 0.42922  0.62093  0.34023  Biso   1.000  H 
  H237     1.0000 0.34767  0.58242  0.28646  Biso   1.000  H 
  H238     1.0000 0.40476  0.55003  0.27954  Biso   1.000  H 
  H239     1.0000 0.38916  0.52145  0.37421  Biso   1.000  H 
  H240     1.0000 0.35538  0.58087  0.37567  Biso   1.000  H 
  O97      1.0000 0.07190  0.63260  0.50000  Biso   1.000  O 
  C273     1.0000 0.11720  0.61720  0.50000  Biso   1.000  C 
  O98      1.0000 0.13260  0.57190  0.50000  Biso   1.000  O 
  C274     1.0000 0.15650  0.65650  0.50000  Biso   1.000  C 
  C275     1.0000 0.14470  0.70580  0.50000  Biso   1.000  C 
  C276     1.0000 0.20580  0.64470  0.50000  Biso   1.000  C 
  C277     1.0000 0.17950  0.74200  0.50000  Biso   1.000  C 
  H241     1.0000 0.11140  0.71490  0.50000  Biso   1.000  H 
  C278     1.0000 0.24200  0.67950  0.50000  Biso   1.000  C 
  H242     1.0000 0.21490  0.61140  0.50000  Biso   1.000  H 
  C279     1.0000 0.23070  0.73070  0.50000  Biso   1.000  C 
  C280     1.0000 0.26930  0.76930  0.50000  Biso   1.000  C 
  H243     1.0000 0.16950  0.77510  0.50000  Biso   1.000  H 
  C281     1.0000 0.25800  0.82050  0.50000  Biso   1.000  C 
  H244     1.0000 0.27510  0.66950  0.50000  Biso   1.000  H 
  C282     1.0000 0.32050  0.75800  0.50000  Biso   1.000  C 
  C283     1.0000 0.29420  0.85530  0.50000  Biso   1.000  C 
  N17      1.0000 0.20602  0.84097  0.49330  Biso   1.000  N 
  C284     1.0000 0.35530  0.79420  0.50000  Biso   1.000  C 
  H245     1.0000 0.33050  0.72490  0.50000  Biso   1.000  H 
  C285     1.0000 0.34350  0.84350  0.50000  Biso   1.000  C 
  C286     1.0000 0.38280  0.88280  0.50000  Biso   1.000  C 
  H246     1.0000 0.28510  0.88860  0.50000  Biso   1.000  H 
  H247     1.0000 0.38860  0.78510  0.50000  Biso   1.000  H 
  O99      1.0000 0.36740  0.92810  0.50000  Biso   1.000  O 
  O100     1.0000 0.42810  0.86740  0.50000  Biso   1.000  O 
  H248     1.0000 0.20015  0.87025  0.51890  Biso   1.000  H 
  C287     1.0000 0.20184  0.85726  0.44205  Biso   1.000  C 
  C288     1.0000 0.14868  0.87312  0.43118  Biso   1.000  C 
  C289     1.0000 0.12901  0.92148  0.45582  Biso   1.000  C 
  H249     1.0000 0.11916  0.91451  0.49557  Biso   1.000  H 
  H250     1.0000 0.09492  0.93452  0.43524  Biso   1.000  H 
  H251     1.0000 0.15841  0.95180  0.45748  Biso   1.000  H 
  H252     1.0000 0.21412  0.82703  0.41717  Biso   1.000  H 
  H253     1.0000 0.22364  0.89006  0.43419  Biso   1.000  H 
  H254     1.0000 0.12408  0.83982  0.43569  Biso   1.000  H 
  H255     1.0000 0.14654  0.88265  0.39049  Biso   1.000  H 
  O101     1.0000 0.07190  0.36740  0.50000  Biso   1.000  O 
  C290     1.0000 0.11720  0.38280  0.50000  Biso   1.000  C 
  O102     1.0000 0.13260  0.42810  0.50000  Biso   1.000  O 
  C291     1.0000 0.15650  0.34350  0.50000  Biso   1.000  C 
  C292     1.0000 0.14470  0.29420  0.50000  Biso   1.000  C 
  C293     1.0000 0.20580  0.35530  0.50000  Biso   1.000  C 
  C294     1.0000 0.17950  0.25800  0.50000  Biso   1.000  C 
  H256     1.0000 0.11140  0.28510  0.50000  Biso   1.000  H 
  C295     1.0000 0.24200  0.32050  0.50000  Biso   1.000  C 
  H257     1.0000 0.21490  0.38860  0.50000  Biso   1.000  H 
  C296     1.0000 0.23070  0.26930  0.50000  Biso   1.000  C 
  C297     1.0000 0.26930  0.23070  0.50000  Biso   1.000  C 
  H258     1.0000 0.16950  0.22490  0.50000  Biso   1.000  H 
  C298     1.0000 0.25800  0.17950  0.50000  Biso   1.000  C 
  H259     1.0000 0.27510  0.33050  0.50000  Biso   1.000  H 
  C299     1.0000 0.32050  0.24200  0.50000  Biso   1.000  C 
  C300     1.0000 0.29420  0.14470  0.50000  Biso   1.000  C 
  N18      1.0000 0.20602  0.15903  0.50670  Biso   1.000  N 
  C301     1.0000 0.35530  0.20580  0.50000  Biso   1.000  C 
  H260     1.0000 0.33050  0.27510  0.50000  Biso   1.000  H 
  C302     1.0000 0.34350  0.15650  0.50000  Biso   1.000  C 
  C303     1.0000 0.38280  0.11720  0.50000  Biso   1.000  C 
  H261     1.0000 0.28510  0.11140  0.50000  Biso   1.000  H 
  H262     1.0000 0.38860  0.21490  0.50000  Biso   1.000  H 
  O103     1.0000 0.36740  0.07190  0.50000  Biso   1.000  O 
  O104     1.0000 0.42810  0.13260  0.50000  Biso   1.000  O 
  H263     1.0000 0.20015  0.12975  0.48110  Biso   1.000  H 
  C304     1.0000 0.20184  0.14274  0.55795  Biso   1.000  C 
  C305     1.0000 0.14868  0.12688  0.56882  Biso   1.000  C 
  C306     1.0000 0.12901  0.07852  0.54418  Biso   1.000  C 
  H264     1.0000 0.11916  0.08549  0.50443  Biso   1.000  H 
  H265     1.0000 0.09492  0.06548  0.56476  Biso   1.000  H 
  H266     1.0000 0.15841  0.04821  0.54252  Biso   1.000  H 
  H267     1.0000 0.21412  0.17297  0.58283  Biso   1.000  H 
  H268     1.0000 0.22364  0.10994  0.56581  Biso   1.000  H 
  H269     1.0000 0.12408  0.16018  0.56431  Biso   1.000  H 
  H270     1.0000 0.14654  0.11735  0.60951  Biso   1.000  H 
  O105     1.0000 0.92810  0.36740  0.50000  Biso   1.000  O 
  C307     1.0000 0.88280  0.38280  0.50000  Biso   1.000  C 
  O106     1.0000 0.86740  0.42810  0.50000  Biso   1.000  O 
  C308     1.0000 0.84350  0.34350  0.50000  Biso   1.000  C 
  C309     1.0000 0.85530  0.29420  0.50000  Biso   1.000  C 
  C310     1.0000 0.79420  0.35530  0.50000  Biso   1.000  C 
  C311     1.0000 0.82050  0.25800  0.50000  Biso   1.000  C 
  H271     1.0000 0.88860  0.28510  0.50000  Biso   1.000  H 
  C312     1.0000 0.75800  0.32050  0.50000  Biso   1.000  C 
  H272     1.0000 0.78510  0.38860  0.50000  Biso   1.000  H 
  C313     1.0000 0.76930  0.26930  0.50000  Biso   1.000  C 
  C314     1.0000 0.73070  0.23070  0.50000  Biso   1.000  C 
  H273     1.0000 0.83050  0.22490  0.50000  Biso   1.000  H 
  C315     1.0000 0.74200  0.17950  0.50000  Biso   1.000  C 
  H274     1.0000 0.72490  0.33050  0.50000  Biso   1.000  H 
  C316     1.0000 0.67950  0.24200  0.50000  Biso   1.000  C 
  C317     1.0000 0.70580  0.14470  0.50000  Biso   1.000  C 
  N19      1.0000 0.79398  0.15903  0.49330  Biso   1.000  N 
  C318     1.0000 0.64470  0.20580  0.50000  Biso   1.000  C 
  H275     1.0000 0.66950  0.27510  0.50000  Biso   1.000  H 
  C319     1.0000 0.65650  0.15650  0.50000  Biso   1.000  C 
  C320     1.0000 0.61720  0.11720  0.50000  Biso   1.000  C 
  H276     1.0000 0.71490  0.11140  0.50000  Biso   1.000  H 
  H277     1.0000 0.61140  0.21490  0.50000  Biso   1.000  H 
  O107     1.0000 0.63260  0.07190  0.50000  Biso   1.000  O 
  O108     1.0000 0.57190  0.13260  0.50000  Biso   1.000  O 
  H278     1.0000 0.79985  0.12975  0.51890  Biso   1.000  H 
  C321     1.0000 0.79816  0.14274  0.44205  Biso   1.000  C 
  C322     1.0000 0.85132  0.12688  0.43118  Biso   1.000  C 
  C323     1.0000 0.87099  0.07852  0.45582  Biso   1.000  C 
  H279     1.0000 0.88084  0.08549  0.49557  Biso   1.000  H 
  H280     1.0000 0.90508  0.06548  0.43524  Biso   1.000  H 
  H281     1.0000 0.84159  0.04821  0.45748  Biso   1.000  H 
  H282     1.0000 0.78588  0.17297  0.41717  Biso   1.000  H 
  H283     1.0000 0.77636  0.10994  0.43419  Biso   1.000  H 
  H284     1.0000 0.87591  0.16018  0.43569  Biso   1.000  H 
  H285     1.0000 0.85346  0.11735  0.39049  Biso   1.000  H 
  O109     1.0000 0.92810  0.63260  0.50000  Biso   1.000  O 
  C324     1.0000 0.88280  0.61720  0.50000  Biso   1.000  C 
  O110     1.0000 0.86740  0.57190  0.50000  Biso   1.000  O 
  C325     1.0000 0.84350  0.65650  0.50000  Biso   1.000  C 
  C326     1.0000 0.85530  0.70580  0.50000  Biso   1.000  C 
  C327     1.0000 0.79420  0.64470  0.50000  Biso   1.000  C 
  C328     1.0000 0.82050  0.74200  0.50000  Biso   1.000  C 
  H286     1.0000 0.88860  0.71490  0.50000  Biso   1.000  H 
  C329     1.0000 0.75800  0.67950  0.50000  Biso   1.000  C 
  H287     1.0000 0.78510  0.61140  0.50000  Biso   1.000  H 
  C330     1.0000 0.76930  0.73070  0.50000  Biso   1.000  C 
  C331     1.0000 0.73070  0.76930  0.50000  Biso   1.000  C 
  H288     1.0000 0.83050  0.77510  0.50000  Biso   1.000  H 
  C332     1.0000 0.74200  0.82050  0.50000  Biso   1.000  C 
  H289     1.0000 0.72490  0.66950  0.50000  Biso   1.000  H 
  C333     1.0000 0.67950  0.75800  0.50000  Biso   1.000  C 
  C334     1.0000 0.70580  0.85530  0.50000  Biso   1.000  C 
  N20      1.0000 0.79398  0.84097  0.50670  Biso   1.000  N 
  C335     1.0000 0.64470  0.79420  0.50000  Biso   1.000  C 
  H290     1.0000 0.66950  0.72490  0.50000  Biso   1.000  H 
  C336     1.0000 0.65650  0.84350  0.50000  Biso   1.000  C 
  C337     1.0000 0.61720  0.88280  0.50000  Biso   1.000  C 
  H291     1.0000 0.71490  0.88860  0.50000  Biso   1.000  H 
  H292     1.0000 0.61140  0.78510  0.50000  Biso   1.000  H 
  O111     1.0000 0.63260  0.92810  0.50000  Biso   1.000  O 
  O112     1.0000 0.57190  0.86740  0.50000  Biso   1.000  O 
  H293     1.0000 0.79985  0.87025  0.48110  Biso   1.000  H 
  C338     1.0000 0.79816  0.85726  0.55795  Biso   1.000  C 
  C339     1.0000 0.85132  0.87312  0.56882  Biso   1.000  C 
  C340     1.0000 0.87099  0.92148  0.54418  Biso   1.000  C 
  H294     1.0000 0.88084  0.91451  0.50443  Biso   1.000  H 
  H295     1.0000 0.90508  0.93452  0.56476  Biso   1.000  H 
  H296     1.0000 0.84159  0.95180  0.54252  Biso   1.000  H 
  H297     1.0000 0.78588  0.82703  0.58283  Biso   1.000  H 
  H298     1.0000 0.77636  0.89006  0.56581  Biso   1.000  H 
  H299     1.0000 0.87591  0.83982  0.56431  Biso   1.000  H 
  H300     1.0000 0.85346  0.88265  0.60951  Biso   1.000  H 
  O113     1.0000 0.50000  0.07190  0.63260  Biso   1.000  O 
  C341     1.0000 0.50000  0.11720  0.61720  Biso   1.000  C 
  O114     1.0000 0.50000  0.13260  0.57190  Biso   1.000  O 
  C342     1.0000 0.50000  0.15650  0.65650  Biso   1.000  C 
  C343     1.0000 0.50000  0.14470  0.70580  Biso   1.000  C 
  C344     1.0000 0.50000  0.20580  0.64470  Biso   1.000  C 
  C345     1.0000 0.50000  0.17950  0.74200  Biso   1.000  C 
  H301     1.0000 0.50000  0.11140  0.71490  Biso   1.000  H 
  C346     1.0000 0.50000  0.24200  0.67950  Biso   1.000  C 
  H302     1.0000 0.50000  0.21490  0.61140  Biso   1.000  H 
  C347     1.0000 0.50000  0.23070  0.73070  Biso   1.000  C 
  C348     1.0000 0.50000  0.26930  0.76930  Biso   1.000  C 
  H303     1.0000 0.50000  0.16950  0.77510  Biso   1.000  H 
  C349     1.0000 0.50000  0.25800  0.82050  Biso   1.000  C 
  H304     1.0000 0.50000  0.27510  0.66950  Biso   1.000  H 
  C350     1.0000 0.50000  0.32050  0.75800  Biso   1.000  C 
  C351     1.0000 0.50000  0.29420  0.85530  Biso   1.000  C 
  N21      1.0000 0.49378  0.20594  0.84101  Biso   1.000  N 
  C352     1.0000 0.50000  0.35530  0.79420  Biso   1.000  C 
  H305     1.0000 0.50000  0.33050  0.72490  Biso   1.000  H 
  C353     1.0000 0.50000  0.34350  0.84350  Biso   1.000  C 
  C354     1.0000 0.50000  0.38280  0.88280  Biso   1.000  C 
  H306     1.0000 0.50000  0.28510  0.88860  Biso   1.000  H 
  H307     1.0000 0.50000  0.38860  0.78510  Biso   1.000  H 
  O115     1.0000 0.50000  0.36740  0.92810  Biso   1.000  O 
  O116     1.0000 0.50000  0.42810  0.86740  Biso   1.000  O 
  H308     1.0000 0.51947  0.20010  0.87019  Biso   1.000  H 
  C355     1.0000 0.44266  0.20133  0.85740  Biso   1.000  C 
  C356     1.0000 0.43200  0.14798  0.87252  Biso   1.000  C 
  C357     1.0000 0.45898  0.12656  0.91904  Biso   1.000  C 
  H309     1.0000 0.49532  0.11232  0.90846  Biso   1.000  H 
  H310     1.0000 0.43600  0.09529  0.93493  Biso   1.000  H 
  H311     1.0000 0.46612  0.15629  0.94838  Biso   1.000  H 
  H312     1.0000 0.41765  0.21402  0.82748  Biso   1.000  H 
  H313     1.0000 0.43508  0.22263  0.89063  Biso   1.000  H 
  H314     1.0000 0.43466  0.12431  0.83828  Biso   1.000  H 
  H315     1.0000 0.39175  0.14600  0.88385  Biso   1.000  H 
  O117     1.0000 0.50000  0.07190  0.36740  Biso   1.000  O 
  C358     1.0000 0.50000  0.11720  0.38280  Biso   1.000  C 
  O118     1.0000 0.50000  0.13260  0.42810  Biso   1.000  O 
  C359     1.0000 0.50000  0.15650  0.34350  Biso   1.000  C 
  C360     1.0000 0.50000  0.14470  0.29420  Biso   1.000  C 
  C361     1.0000 0.50000  0.20580  0.35530  Biso   1.000  C 
  C362     1.0000 0.50000  0.17950  0.25800  Biso   1.000  C 
  H316     1.0000 0.50000  0.11140  0.28510  Biso   1.000  H 
  C363     1.0000 0.50000  0.24200  0.32050  Biso   1.000  C 
  H317     1.0000 0.50000  0.21490  0.38860  Biso   1.000  H 
  C364     1.0000 0.50000  0.23070  0.26930  Biso   1.000  C 
  C365     1.0000 0.50000  0.26930  0.23070  Biso   1.000  C 
  H318     1.0000 0.50000  0.16950  0.22490  Biso   1.000  H 
  C366     1.0000 0.50000  0.25800  0.17950  Biso   1.000  C 
  H319     1.0000 0.50000  0.27510  0.33050  Biso   1.000  H 
  C367     1.0000 0.50000  0.32050  0.24200  Biso   1.000  C 
  C368     1.0000 0.50000  0.29420  0.14470  Biso   1.000  C 
  N22      1.0000 0.50622  0.20594  0.15900  Biso   1.000  N 
  C369     1.0000 0.50000  0.35530  0.20580  Biso   1.000  C 
  H320     1.0000 0.50000  0.33050  0.27510  Biso   1.000  H 
  C370     1.0000 0.50000  0.34350  0.15650  Biso   1.000  C 
  C371     1.0000 0.50000  0.38280  0.11720  Biso   1.000  C 
  H321     1.0000 0.50000  0.28510  0.11140  Biso   1.000  H 
  H322     1.0000 0.50000  0.38860  0.21490  Biso   1.000  H 
  O119     1.0000 0.50000  0.36740  0.07190  Biso   1.000  O 
  O120     1.0000 0.50000  0.42810  0.13260  Biso   1.000  O 
  H323     1.0000 0.48053  0.20010  0.12981  Biso   1.000  H 
  C372     1.0000 0.55734  0.20133  0.14261  Biso   1.000  C 
  C373     1.0000 0.56800  0.14798  0.12748  Biso   1.000  C 
  C374     1.0000 0.54102  0.12656  0.08096  Biso   1.000  C 
  H324     1.0000 0.50468  0.11232  0.09154  Biso   1.000  H 
  H325     1.0000 0.56400  0.09529  0.06507  Biso   1.000  H 
  H326     1.0000 0.53388  0.15629  0.05162  Biso   1.000  H 
  H327     1.0000 0.58235  0.21402  0.17252  Biso   1.000  H 
  H328     1.0000 0.56492  0.22263  0.10937  Biso   1.000  H 
  H329     1.0000 0.56534  0.12431  0.16172  Biso   1.000  H 
  H330     1.0000 0.60825  0.14600  0.11615  Biso   1.000  H 
  O121     1.0000 0.50000  0.92810  0.36740  Biso   1.000  O 
  C375     1.0000 0.50000  0.88280  0.38280  Biso   1.000  C 
  O122     1.0000 0.50000  0.86740  0.42810  Biso   1.000  O 
  C376     1.0000 0.50000  0.84350  0.34350  Biso   1.000  C 
  C377     1.0000 0.50000  0.85530  0.29420  Biso   1.000  C 
  C378     1.0000 0.50000  0.79420  0.35530  Biso   1.000  C 
  C379     1.0000 0.50000  0.82050  0.25800  Biso   1.000  C 
  H331     1.0000 0.50000  0.88860  0.28510  Biso   1.000  H 
  C380     1.0000 0.50000  0.75800  0.32050  Biso   1.000  C 
  H332     1.0000 0.50000  0.78510  0.38860  Biso   1.000  H 
  C381     1.0000 0.50000  0.76930  0.26930  Biso   1.000  C 
  C382     1.0000 0.50000  0.73070  0.23070  Biso   1.000  C 
  H333     1.0000 0.50000  0.83050  0.22490  Biso   1.000  H 
  C383     1.0000 0.50000  0.74200  0.17950  Biso   1.000  C 
  H334     1.0000 0.50000  0.72490  0.33050  Biso   1.000  H 
  C384     1.0000 0.50000  0.67950  0.24200  Biso   1.000  C 
  C385     1.0000 0.50000  0.70580  0.14470  Biso   1.000  C 
  N23      1.0000 0.49378  0.79406  0.15900  Biso   1.000  N 
  C386     1.0000 0.50000  0.64470  0.20580  Biso   1.000  C 
  H335     1.0000 0.50000  0.66950  0.27510  Biso   1.000  H 
  C387     1.0000 0.50000  0.65650  0.15650  Biso   1.000  C 
  C388     1.0000 0.50000  0.61720  0.11720  Biso   1.000  C 
  H336     1.0000 0.50000  0.71490  0.11140  Biso   1.000  H 
  H337     1.0000 0.50000  0.61140  0.21490  Biso   1.000  H 
  O123     1.0000 0.50000  0.63260  0.07190  Biso   1.000  O 
  O124     1.0000 0.50000  0.57190  0.13260  Biso   1.000  O 
  H338     1.0000 0.51947  0.79990  0.12981  Biso   1.000  H 
  C389     1.0000 0.44266  0.79867  0.14261  Biso   1.000  C 
  C390     1.0000 0.43200  0.85202  0.12748  Biso   1.000  C 
  C391     1.0000 0.45898  0.87344  0.08096  Biso   1.000  C 
  H339     1.0000 0.49532  0.88768  0.09154  Biso   1.000  H 
  H340     1.0000 0.43600  0.90471  0.06507  Biso   1.000  H 
  H341     1.0000 0.46612  0.84371  0.05162  Biso   1.000  H 
  H342     1.0000 0.41765  0.78598  0.17252  Biso   1.000  H 
  H343     1.0000 0.43508  0.77737  0.10937  Biso   1.000  H 
  H344     1.0000 0.43466  0.87569  0.16172  Biso   1.000  H 
  H345     1.0000 0.39175  0.85400  0.11615  Biso   1.000  H 
  O125     1.0000 0.50000  0.92810  0.63260  Biso   1.000  O 
  C392     1.0000 0.50000  0.88280  0.61720  Biso   1.000  C 
  O126     1.0000 0.50000  0.86740  0.57190  Biso   1.000  O 
  C393     1.0000 0.50000  0.84350  0.65650  Biso   1.000  C 
  C394     1.0000 0.50000  0.85530  0.70580  Biso   1.000  C 
  C395     1.0000 0.50000  0.79420  0.64470  Biso   1.000  C 
  C396     1.0000 0.50000  0.82050  0.74200  Biso   1.000  C 
  H346     1.0000 0.50000  0.88860  0.71490  Biso   1.000  H 
  C397     1.0000 0.50000  0.75800  0.67950  Biso   1.000  C 
  H347     1.0000 0.50000  0.78510  0.61140  Biso   1.000  H 
  C398     1.0000 0.50000  0.76930  0.73070  Biso   1.000  C 
  C399     1.0000 0.50000  0.73070  0.76930  Biso   1.000  C 
  H348     1.0000 0.50000  0.83050  0.77510  Biso   1.000  H 
  C400     1.0000 0.50000  0.74200  0.82050  Biso   1.000  C 
  H349     1.0000 0.50000  0.72490  0.66950  Biso   1.000  H 
  C401     1.0000 0.50000  0.67950  0.75800  Biso   1.000  C 
  C402     1.0000 0.50000  0.70580  0.85530  Biso   1.000  C 
  N24      1.0000 0.50622  0.79406  0.84101  Biso   1.000  N 
  C403     1.0000 0.50000  0.64470  0.79420  Biso   1.000  C 
  H350     1.0000 0.50000  0.66950  0.72490  Biso   1.000  H 
  C404     1.0000 0.50000  0.65650  0.84350  Biso   1.000  C 
  C405     1.0000 0.50000  0.61720  0.88280  Biso   1.000  C 
  H351     1.0000 0.50000  0.71490  0.88860  Biso   1.000  H 
  H352     1.0000 0.50000  0.61140  0.78510  Biso   1.000  H 
  O127     1.0000 0.50000  0.63260  0.92810  Biso   1.000  O 
  O128     1.0000 0.50000  0.57190  0.86740  Biso   1.000  O 
  H353     1.0000 0.48053  0.79990  0.87019  Biso   1.000  H 
  C406     1.0000 0.55734  0.79867  0.85740  Biso   1.000  C 
  C407     1.0000 0.56800  0.85202  0.87252  Biso   1.000  C 
  C408     1.0000 0.54102  0.87344  0.91904  Biso   1.000  C 
  H354     1.0000 0.50468  0.88768  0.90846  Biso   1.000  H 
  H355     1.0000 0.56400  0.90471  0.93493  Biso   1.000  H 
  H356     1.0000 0.53388  0.84371  0.94838  Biso   1.000  H 
  H357     1.0000 0.58235  0.78598  0.82748  Biso   1.000  H 
  H358     1.0000 0.56492  0.77737  0.89063  Biso   1.000  H 
  H359     1.0000 0.56534  0.87569  0.83828  Biso   1.000  H 
  H360     1.0000 0.60825  0.85400  0.88385  Biso   1.000  H 
