data_image0
_cell_length_a       20.7004
_cell_length_b       20.7004
_cell_length_c       20.7004
_cell_angle_alpha    90
_cell_angle_beta     90
_cell_angle_gamma    90

_symmetry_space_group_name_H-M    "P 1"
_symmetry_int_tables_number       1

loop_
  _symmetry_equiv_pos_as_xyz
  'x, y, z'

loop_
  _atom_site_label
  _atom_site_occupancy
  _atom_site_fract_x
  _atom_site_fract_y
  _atom_site_fract_z
  _atom_site_thermal_displace_type
  _atom_site_B_iso_or_equiv
  _atom_site_type_symbol
  Zr1      1.0000 0.11989  0.00000  0.00000  Biso   1.000  Zr
  Zr2      1.0000 0.11989  0.50000  0.50000  Biso   1.000  Zr
  Zr3      1.0000 0.61989  0.00000  0.50000  Biso   1.000  Zr
  Zr4      1.0000 0.61989  0.50000  0.00000  Biso   1.000  Zr
  Zr5      1.0000 0.88011  0.00000  0.00000  Biso   1.000  Zr
  Zr6      1.0000 0.88011  0.50000  0.50000  Biso   1.000  Zr
  Zr7      1.0000 0.38011  0.00000  0.50000  Biso   1.000  Zr
  Zr8      1.0000 0.38011  0.50000  0.00000  Biso   1.000  Zr
  Zr9      1.0000 0.00000  0.11989  0.00000  Biso   1.000  Zr
  Zr10     1.0000 0.00000  0.61989  0.50000  Biso   1.000  Zr
  Zr11     1.0000 0.50000  0.11989  0.50000  Biso   1.000  Zr
  Zr12     1.0000 0.50000  0.61989  0.00000  Biso   1.000  Zr
  Zr13     1.0000 0.00000  0.88011  0.00000  Biso   1.000  Zr
  Zr14     1.0000 0.00000  0.38011  0.50000  Biso   1.000  Zr
  Zr15     1.0000 0.50000  0.88011  0.50000  Biso   1.000  Zr
  Zr16     1.0000 0.50000  0.38011  0.00000  Biso   1.000  Zr
  Zr17     1.0000 0.00000  0.00000  0.11989  Biso   1.000  Zr
  Zr18     1.0000 0.00000  0.50000  0.61989  Biso   1.000  Zr
  Zr19     1.0000 0.50000  0.00000  0.61989  Biso   1.000  Zr
  Zr20     1.0000 0.50000  0.50000  0.11989  Biso   1.000  Zr
  Zr21     1.0000 0.00000  0.00000  0.88011  Biso   1.000  Zr
  Zr22     1.0000 0.00000  0.50000  0.38011  Biso   1.000  Zr
  Zr23     1.0000 0.50000  0.00000  0.38011  Biso   1.000  Zr
  Zr24     1.0000 0.50000  0.50000  0.88011  Biso   1.000  Zr
  O1       1.0000 0.05610  0.44390  0.44390  Biso   1.000  O 
  O2       1.0000 0.55610  0.94390  0.44390  Biso   1.000  O 
  O3       1.0000 0.55610  0.44390  0.94390  Biso   1.000  O 
  O4       1.0000 0.44390  0.05610  0.44390  Biso   1.000  O 
  O5       1.0000 0.44390  0.55610  0.94390  Biso   1.000  O 
  O6       1.0000 0.94390  0.94390  0.05610  Biso   1.000  O 
  O7       1.0000 0.94390  0.44390  0.55610  Biso   1.000  O 
  O8       1.0000 0.05610  0.05610  0.05610  Biso   1.000  O 
  O9       1.0000 0.55610  0.55610  0.05610  Biso   1.000  O 
  O10      1.0000 0.94390  0.05610  0.05610  Biso   1.000  O 
  O11      1.0000 0.94390  0.55610  0.55610  Biso   1.000  O 
  O12      1.0000 0.44390  0.05610  0.55610  Biso   1.000  O 
  O13      1.0000 0.44390  0.55610  0.05610  Biso   1.000  O 
  O14      1.0000 0.05610  0.94390  0.05610  Biso   1.000  O 
  O15      1.0000 0.05610  0.44390  0.55610  Biso   1.000  O 
  O16      1.0000 0.55610  0.94390  0.55610  Biso   1.000  O 
  O17      1.0000 0.55610  0.44390  0.05610  Biso   1.000  O 
  O18      1.0000 0.94390  0.94390  0.94390  Biso   1.000  O 
  O19      1.0000 0.94390  0.44390  0.44390  Biso   1.000  O 
  O20      1.0000 0.44390  0.94390  0.44390  Biso   1.000  O 
  O21      1.0000 0.44390  0.44390  0.94390  Biso   1.000  O 
  O22      1.0000 0.05610  0.05610  0.94390  Biso   1.000  O 
  O23      1.0000 0.05610  0.55610  0.44390  Biso   1.000  O 
  O24      1.0000 0.55610  0.05610  0.44390  Biso   1.000  O 
  C1       1.0000 0.15360  0.00000  0.84640  Biso   1.000  C 
  O25      1.0000 0.17046  0.00000  0.90471  Biso   1.000  O 
  O26      1.0000 0.09529  0.00000  0.82954  Biso   1.000  O 
  C2       1.0000 0.20500  0.00000  0.79500  Biso   1.000  C 
  C3       1.0000 0.18437  0.00000  0.73249  Biso   1.000  C 
  N1       1.0000 0.15133  0.07782  0.75218  Biso   1.000  N 
  H1       1.0000 0.22128  0.00000  0.63051  Biso   1.000  H 
  C4       1.0000 0.23249  0.00000  0.68442  Biso   1.000  C 
  C5       1.0000 0.29500  0.00000  0.70500  Biso   1.000  C 
  C6       1.0000 0.31558  0.00000  0.76751  Biso   1.000  C 
  C7       1.0000 0.26751  0.00000  0.81563  Biso   1.000  C 
  H2       1.0000 0.27872  0.00000  0.86954  Biso   1.000  H 
  N2       1.0000 0.37508  0.04162  0.78821  Biso   1.000  N 
  O27      1.0000 0.40470  0.00000  0.67046  Biso   1.000  O 
  C8       1.0000 0.34640  0.00000  0.65360  Biso   1.000  C 
  O28      1.0000 0.32954  0.00000  0.59529  Biso   1.000  O 
  H3       1.0000 0.10582  0.09693  0.74572  Biso   1.000  H 
  C9       1.0000 0.17784  0.12163  0.80700  Biso   1.000  C 
  H4       1.0000 0.17309  0.16274  0.77964  Biso   1.000  H 
  C10      1.0000 0.24880  0.12901  0.83770  Biso   1.000  C 
  C11      1.0000 0.13710  0.13880  0.85963  Biso   1.000  C 
  C12      1.0000 0.21181  0.24046  0.85799  Biso   1.000  C 
  C13      1.0000 0.26620  0.19773  0.84843  Biso   1.000  C 
  H5       1.0000 0.28731  0.11100  0.81144  Biso   1.000  H 
  H6       1.0000 0.25280  0.10508  0.88504  Biso   1.000  H 
  H7       1.0000 0.28670  0.20326  0.89288  Biso   1.000  H 
  H8       1.0000 0.30259  0.21405  0.81254  Biso   1.000  H 
  C14      1.0000 0.14291  0.21256  0.86808  Biso   1.000  C 
  H9       1.0000 0.11665  0.22985  0.82795  Biso   1.000  H 
  H10      1.0000 0.12226  0.23131  0.91095  Biso   1.000  H 
  H11      1.0000 0.15680  0.11640  0.89815  Biso   1.000  H 
  H12      1.0000 0.22089  0.28482  0.88466  Biso   1.000  H 
  H13      1.0000 0.09669  0.11378  0.85538  Biso   1.000  H 
  H14      1.0000 0.21288  0.25296  0.81109  Biso   1.000  H 
  C15      1.0000 0.43899  0.01827  0.77865  Biso   1.000  C 
  H15      1.0000 0.37550  0.09027  0.77974  Biso   1.000  H 
  C16      1.0000 0.49015  0.02975  0.82995  Biso   1.000  C 
  H16      1.0000 0.45821  0.04611  0.74293  Biso   1.000  H 
  C17      1.0000 0.43448  0.94883  0.76453  Biso   1.000  C 
  H17      1.0000 0.40467  0.91990  0.73018  Biso   1.000  H 
  C18      1.0000 0.42189  0.92045  0.82135  Biso   1.000  C 
  H18      1.0000 0.48221  0.95209  0.74919  Biso   1.000  H 
  C19      1.0000 0.47963  0.93058  0.86747  Biso   1.000  C 
  H19      1.0000 0.41280  0.86797  0.81492  Biso   1.000  H 
  H20      1.0000 0.37989  0.94021  0.83429  Biso   1.000  H 
  C20      1.0000 0.52926  0.97382  0.84767  Biso   1.000  C 
  H21      1.0000 0.49487  0.88805  0.87791  Biso   1.000  H 
  H22      1.0000 0.47210  0.95282  0.91124  Biso   1.000  H 
  H23      1.0000 0.56126  0.98796  0.88739  Biso   1.000  H 
  H24      1.0000 0.56091  0.95333  0.80803  Biso   1.000  H 
  H25      1.0000 0.47192  0.04589  0.87440  Biso   1.000  H 
  H26      1.0000 0.52857  0.05228  0.80987  Biso   1.000  H 
  C21      1.0000 0.15360  0.50000  0.34640  Biso   1.000  C 
  O29      1.0000 0.17046  0.50000  0.40471  Biso   1.000  O 
  O30      1.0000 0.09529  0.50000  0.32954  Biso   1.000  O 
  C22      1.0000 0.20500  0.50000  0.29500  Biso   1.000  C 
  C23      1.0000 0.18437  0.50000  0.23249  Biso   1.000  C 
  N3       1.0000 0.13933  0.56127  0.22610  Biso   1.000  N 
  H27      1.0000 0.22128  0.50000  0.13051  Biso   1.000  H 
  C24      1.0000 0.23249  0.50000  0.18442  Biso   1.000  C 
  C25      1.0000 0.29500  0.50000  0.20500  Biso   1.000  C 
  C26      1.0000 0.31558  0.50000  0.26751  Biso   1.000  C 
  C27      1.0000 0.26751  0.50000  0.31563  Biso   1.000  C 
  H28      1.0000 0.27872  0.50000  0.36954  Biso   1.000  H 
  N4       1.0000 0.37393  0.53803  0.28223  Biso   1.000  N 
  O31      1.0000 0.40470  0.50000  0.17046  Biso   1.000  O 
  C28      1.0000 0.34640  0.50000  0.15360  Biso   1.000  C 
  O32      1.0000 0.32954  0.50000  0.09529  Biso   1.000  O 
  H29      1.0000 0.09464  0.56121  0.24725  Biso   1.000  H 
  C29      1.0000 0.17426  0.62169  0.25551  Biso   1.000  C 
  H30      1.0000 0.18882  0.64350  0.21183  Biso   1.000  H 
  C30      1.0000 0.23556  0.62131  0.29919  Biso   1.000  C 
  C31      1.0000 0.13577  0.66828  0.29243  Biso   1.000  C 
  C32      1.0000 0.22032  0.71183  0.36606  Biso   1.000  C 
  C33      1.0000 0.26882  0.67025  0.34502  Biso   1.000  C 
  H31      1.0000 0.27517  0.60180  0.27697  Biso   1.000  H 
  H32      1.0000 0.21811  0.59656  0.34238  Biso   1.000  H 
  H33      1.0000 0.28266  0.64908  0.38789  Biso   1.000  H 
  H34      1.0000 0.30802  0.70168  0.33473  Biso   1.000  H 
  C34      1.0000 0.17674  0.72627  0.31645  Biso   1.000  C 
  H35      1.0000 0.15666  0.76773  0.33938  Biso   1.000  H 
  H36      1.0000 0.20637  0.74048  0.27696  Biso   1.000  H 
  H37      1.0000 0.11299  0.64469  0.33462  Biso   1.000  H 
  H38      1.0000 0.18846  0.68277  0.39603  Biso   1.000  H 
  H39      1.0000 0.10407  0.68296  0.25804  Biso   1.000  H 
  H40      1.0000 0.24024  0.75477  0.38891  Biso   1.000  H 
  C35      1.0000 0.43272  0.50471  0.29023  Biso   1.000  C 
  H41      1.0000 0.38652  0.56822  0.24509  Biso   1.000  H 
  C36      1.0000 0.47254  0.54455  0.33476  Biso   1.000  C 
  H42      1.0000 0.46049  0.49569  0.24827  Biso   1.000  H 
  C37      1.0000 0.42539  0.44138  0.31614  Biso   1.000  C 
  H43      1.0000 0.38235  0.44690  0.34200  Biso   1.000  H 
  C38      1.0000 0.49049  0.43073  0.35842  Biso   1.000  C 
  H44      1.0000 0.41196  0.40964  0.27390  Biso   1.000  H 
  C39      1.0000 0.54684  0.45789  0.31658  Biso   1.000  C 
  H45      1.0000 0.49927  0.38479  0.36818  Biso   1.000  H 
  H46      1.0000 0.48959  0.45476  0.40199  Biso   1.000  H 
  C40      1.0000 0.53945  0.53120  0.31118  Biso   1.000  C 
  H47      1.0000 0.54885  0.44897  0.26333  Biso   1.000  H 
  H48      1.0000 0.59023  0.44156  0.33049  Biso   1.000  H 
  H49      1.0000 0.57116  0.55673  0.34020  Biso   1.000  H 
  H50      1.0000 0.54111  0.54472  0.26126  Biso   1.000  H 
  H51      1.0000 0.47663  0.54322  0.38276  Biso   1.000  H 
  H52      1.0000 0.44745  0.58490  0.32987  Biso   1.000  H 
  C41      1.0000 0.65360  0.00000  0.34640  Biso   1.000  C 
  O33      1.0000 0.67046  0.00000  0.40471  Biso   1.000  O 
  O34      1.0000 0.59529  0.00000  0.32954  Biso   1.000  O 
  C42      1.0000 0.70500  0.00000  0.29500  Biso   1.000  C 
  C43      1.0000 0.68437  0.00000  0.23249  Biso   1.000  C 
  N5       1.0000 0.63880  0.06353  0.22827  Biso   1.000  N 
  H53      1.0000 0.72128  0.00000  0.13051  Biso   1.000  H 
  C44      1.0000 0.73248  0.00000  0.18442  Biso   1.000  C 
  C45      1.0000 0.79499  0.00000  0.20500  Biso   1.000  C 
  C46      1.0000 0.81558  0.00000  0.26751  Biso   1.000  C 
  C47      1.0000 0.76751  0.00000  0.31563  Biso   1.000  C 
  H54      1.0000 0.77872  0.00000  0.36954  Biso   1.000  H 
  N6       1.0000 0.87535  0.04351  0.28111  Biso   1.000  N 
  O35      1.0000 0.90470  0.00000  0.17046  Biso   1.000  O 
  C48      1.0000 0.84639  0.00000  0.15360  Biso   1.000  C 
  O36      1.0000 0.82953  0.00000  0.09529  Biso   1.000  O 
  H55      1.0000 0.59122  0.04809  0.22697  Biso   1.000  H 
  C49      1.0000 0.64835  0.11444  0.28769  Biso   1.000  C 
  H56      1.0000 0.61164  0.10988  0.32648  Biso   1.000  H 
  C50      1.0000 0.71882  0.11959  0.32414  Biso   1.000  C 
  C51      1.0000 0.63730  0.18121  0.26807  Biso   1.000  C 
  C52      1.0000 0.71931  0.23788  0.34088  Biso   1.000  C 
  C53      1.0000 0.73694  0.17489  0.36588  Biso   1.000  C 
  H57      1.0000 0.75864  0.11006  0.29170  Biso   1.000  H 
  H58      1.0000 0.72231  0.08701  0.36611  Biso   1.000  H 
  H59      1.0000 0.70138  0.16970  0.39965  Biso   1.000  H 
  H60      1.0000 0.78649  0.17124  0.38390  Biso   1.000  H 
  C54      1.0000 0.64619  0.23303  0.31901  Biso   1.000  C 
  H61      1.0000 0.61719  0.21501  0.35995  Biso   1.000  H 
  H62      1.0000 0.62779  0.28140  0.30723  Biso   1.000  H 
  H63      1.0000 0.60473  0.19158  0.23291  Biso   1.000  H 
  H64      1.0000 0.72765  0.27202  0.37739  Biso   1.000  H 
  H65      1.0000 0.67918  0.18826  0.24667  Biso   1.000  H 
  H66      1.0000 0.75242  0.24961  0.30354  Biso   1.000  H 
  C55      1.0000 0.93761  0.01128  0.27715  Biso   1.000  C 
  H67      1.0000 0.87908  0.07486  0.24396  Biso   1.000  H 
  C56      1.0000 0.98347  0.01713  0.33185  Biso   1.000  C 
  H68      1.0000 0.96820  0.03235  0.24124  Biso   1.000  H 
  C57      1.0000 0.91947  0.94414  0.27291  Biso   1.000  C 
  H69      1.0000 0.88706  0.91981  0.23616  Biso   1.000  H 
  C58      1.0000 0.88996  0.92975  0.33735  Biso   1.000  C 
  H70      1.0000 0.96291  0.94108  0.25337  Biso   1.000  H 
  C59      1.0000 0.89816  0.99307  0.39246  Biso   1.000  C 
  H71      1.0000 0.92307  0.89987  0.32963  Biso   1.000  H 
  H72      1.0000 0.84311  0.90481  0.33804  Biso   1.000  H 
  C60      1.0000 0.96147  0.01563  0.39501  Biso   1.000  C 
  H73      1.0000 0.89985  0.99498  0.44130  Biso   1.000  H 
  H74      1.0000 0.86588  0.03318  0.38399  Biso   1.000  H 
  H75      1.0000 0.95805  0.05853  0.41512  Biso   1.000  H 
  H76      1.0000 0.00324  0.99878  0.42526  Biso   1.000  H 
  H77      1.0000 0.99391  0.05998  0.32749  Biso   1.000  H 
  H78      1.0000 0.02339  0.98496  0.33045  Biso   1.000  H 
  C61      1.0000 0.65360  0.50000  0.84640  Biso   1.000  C 
  O37      1.0000 0.67046  0.50000  0.90471  Biso   1.000  O 
  O38      1.0000 0.59529  0.50000  0.82954  Biso   1.000  O 
  C62      1.0000 0.70500  0.50000  0.79500  Biso   1.000  C 
  C63      1.0000 0.68437  0.50000  0.73249  Biso   1.000  C 
  N7       1.0000 0.64275  0.56550  0.73523  Biso   1.000  N 
  H79      1.0000 0.72128  0.50000  0.63051  Biso   1.000  H 
  C64      1.0000 0.73248  0.50000  0.68442  Biso   1.000  C 
  C65      1.0000 0.79499  0.50000  0.70500  Biso   1.000  C 
  C66      1.0000 0.81558  0.50000  0.76751  Biso   1.000  C 
  C67      1.0000 0.76751  0.50000  0.81563  Biso   1.000  C 
  H80      1.0000 0.77872  0.50000  0.86954  Biso   1.000  H 
  N8       1.0000 0.86991  0.54538  0.77515  Biso   1.000  N 
  O39      1.0000 0.90470  0.50000  0.67046  Biso   1.000  O 
  C68      1.0000 0.84639  0.50000  0.65360  Biso   1.000  C 
  O40      1.0000 0.82953  0.50000  0.59529  Biso   1.000  O 
  H81      1.0000 0.59452  0.56184  0.74804  Biso   1.000  H 
  C69      1.0000 0.67466  0.62253  0.76745  Biso   1.000  C 
  H82      1.0000 0.63738  0.66041  0.75488  Biso   1.000  H 
  C70      1.0000 0.74793  0.64006  0.74962  Biso   1.000  C 
  C71      1.0000 0.66966  0.63169  0.84042  Biso   1.000  C 
  C72      1.0000 0.75882  0.71658  0.84827  Biso   1.000  C 
  C73      1.0000 0.79272  0.67083  0.80209  Biso   1.000  C 
  H83      1.0000 0.75682  0.66740  0.70510  Biso   1.000  H 
  H84      1.0000 0.76755  0.59794  0.73707  Biso   1.000  H 
  H85      1.0000 0.81279  0.63187  0.83430  Biso   1.000  H 
  H86      1.0000 0.83302  0.69709  0.77730  Biso   1.000  H 
  C74      1.0000 0.68624  0.70299  0.85423  Biso   1.000  C 
  H87      1.0000 0.67332  0.71807  0.89671  Biso   1.000  H 
  H88      1.0000 0.65608  0.73098  0.82335  Biso   1.000  H 
  H89      1.0000 0.62166  0.62238  0.85733  Biso   1.000  H 
  H90      1.0000 0.76665  0.76487  0.83758  Biso   1.000  H 
  H91      1.0000 0.70557  0.60618  0.87188  Biso   1.000  H 
  H92      1.0000 0.78466  0.71058  0.89121  Biso   1.000  H 
  C75      1.0000 0.93445  0.53685  0.79345  Biso   1.000  C 
  H93      1.0000 0.86506  0.58922  0.74930  Biso   1.000  H 
  C76      1.0000 0.93237  0.56951  0.85457  Biso   1.000  C 
  H94      1.0000 0.95469  0.55899  0.75460  Biso   1.000  H 
  C77      1.0000 0.97373  0.47613  0.78286  Biso   1.000  C 
  H95      1.0000 0.93906  0.44056  0.76456  Biso   1.000  H 
  C78      1.0000 0.02775  0.45651  0.83468  Biso   1.000  C 
  H96      1.0000 0.00807  0.48441  0.74351  Biso   1.000  H 
  C79      1.0000 0.01605  0.48809  0.89794  Biso   1.000  C 
  H97      1.0000 0.07564  0.46345  0.81954  Biso   1.000  H 
  H98      1.0000 0.02799  0.41007  0.85514  Biso   1.000  H 
  C80      1.0000 0.98999  0.55008  0.89009  Biso   1.000  C 
  H99      1.0000 0.05868  0.49596  0.92471  Biso   1.000  H 
  H100     1.0000 0.98583  0.46403  0.92673  Biso   1.000  H 
  H101     1.0000 0.98121  0.56985  0.93864  Biso   1.000  H 
  H102     1.0000 0.02694  0.57121  0.86101  Biso   1.000  H 
  H103     1.0000 0.88764  0.56746  0.88068  Biso   1.000  H 
  H104     1.0000 0.93213  0.62005  0.84452  Biso   1.000  H 
  C81      1.0000 0.84640  0.00000  0.84640  Biso   1.000  C 
  O41      1.0000 0.82954  0.00000  0.90471  Biso   1.000  O 
  O42      1.0000 0.90471  0.00000  0.82954  Biso   1.000  O 
  C82      1.0000 0.79500  0.00000  0.79500  Biso   1.000  C 
  C83      1.0000 0.81563  0.00000  0.73249  Biso   1.000  C 
  N9       1.0000 0.87976  0.03573  0.71786  Biso   1.000  N 
  H105     1.0000 0.77872  0.00000  0.63051  Biso   1.000  H 
  C84      1.0000 0.76752  0.00000  0.68442  Biso   1.000  C 
  C85      1.0000 0.70501  0.00000  0.70500  Biso   1.000  C 
  C86      1.0000 0.68442  0.00000  0.76751  Biso   1.000  C 
  C87      1.0000 0.73249  0.00000  0.81563  Biso   1.000  C 
  H106     1.0000 0.72128  0.00000  0.86954  Biso   1.000  H 
  N10      1.0000 0.63165  0.04745  0.78505  Biso   1.000  N 
  O43      1.0000 0.59530  0.00000  0.67046  Biso   1.000  O 
  C88      1.0000 0.65361  0.00000  0.65360  Biso   1.000  C 
  O44      1.0000 0.67047  0.00000  0.59529  Biso   1.000  O 
  H107     1.0000 0.89623  0.07528  0.74466  Biso   1.000  H 
  C89      1.0000 0.91818  0.01766  0.66291  Biso   1.000  C 
  H108     1.0000 0.88081  0.01578  0.62920  Biso   1.000  H 
  C90      1.0000 0.95411  0.96163  0.68666  Biso   1.000  C 
  C91      1.0000 0.96468  0.06579  0.62484  Biso   1.000  C 
  C92      1.0000 0.05521  0.00995  0.67312  Biso   1.000  C 
  C93      1.0000 0.00564  0.99382  0.72120  Biso   1.000  C 
  H109     1.0000 0.96754  0.92967  0.64805  Biso   1.000  H 
  H110     1.0000 0.92600  0.93382  0.72465  Biso   1.000  H 
  H111     1.0000 0.98739  0.02723  0.75552  Biso   1.000  H 
  H112     1.0000 0.02217  0.95906  0.74592  Biso   1.000  H 
  C94      1.0000 0.03709  0.06267  0.63375  Biso   1.000  C 
  H113     1.0000 0.05702  0.10795  0.65207  Biso   1.000  H 
  H114     1.0000 0.05739  0.05803  0.58533  Biso   1.000  H 
  H115     1.0000 0.95444  0.06109  0.57320  Biso   1.000  H 
  H116     1.0000 0.07952  0.98030  0.64243  Biso   1.000  H 
  H117     1.0000 0.95506  0.11190  0.63943  Biso   1.000  H 
  H118     1.0000 0.08731  0.02382  0.69625  Biso   1.000  H 
  C95      1.0000 0.66106  0.11276  0.79763  Biso   1.000  C 
  H119     1.0000 0.62247  0.03364  0.83249  Biso   1.000  H 
  C96      1.0000 0.68035  0.13552  0.86587  Biso   1.000  C 
  H120     1.0000 0.61813  0.14359  0.78855  Biso   1.000  H 
  C97      1.0000 0.71709  0.13176  0.75438  Biso   1.000  C 
  H121     1.0000 0.72202  0.10612  0.71183  Biso   1.000  H 
  C98      1.0000 0.78355  0.15261  0.78161  Biso   1.000  C 
  H122     1.0000 0.69522  0.17146  0.74257  Biso   1.000  H 
  C99      1.0000 0.78521  0.18463  0.84482  Biso   1.000  C 
  H123     1.0000 0.80510  0.18783  0.74869  Biso   1.000  H 
  H124     1.0000 0.81684  0.11330  0.78642  Biso   1.000  H 
  C100     1.0000 0.71743  0.19976  0.86243  Biso   1.000  C 
  H125     1.0000 0.81570  0.23016  0.84146  Biso   1.000  H 
  H126     1.0000 0.80861  0.15018  0.88044  Biso   1.000  H 
  H127     1.0000 0.68597  0.22587  0.83289  Biso   1.000  H 
  H128     1.0000 0.72669  0.23348  0.89894  Biso   1.000  H 
  H129     1.0000 0.70995  0.09987  0.88509  Biso   1.000  H 
  H130     1.0000 0.64055  0.14152  0.89888  Biso   1.000  H 
  C101     1.0000 0.84640  0.50000  0.34640  Biso   1.000  C 
  O45      1.0000 0.82954  0.50000  0.40471  Biso   1.000  O 
  O46      1.0000 0.90471  0.50000  0.32954  Biso   1.000  O 
  C102     1.0000 0.79500  0.50000  0.29500  Biso   1.000  C 
  C103     1.0000 0.81563  0.50000  0.23249  Biso   1.000  C 
  N11      1.0000 0.87650  0.53714  0.21258  Biso   1.000  N 
  H131     1.0000 0.77872  0.50000  0.13051  Biso   1.000  H 
  C104     1.0000 0.76752  0.50000  0.18442  Biso   1.000  C 
  C105     1.0000 0.70501  0.50000  0.20500  Biso   1.000  C 
  C106     1.0000 0.68442  0.50000  0.26751  Biso   1.000  C 
  C107     1.0000 0.73249  0.50000  0.31563  Biso   1.000  C 
  H132     1.0000 0.72128  0.50000  0.36954  Biso   1.000  H 
  N12      1.0000 0.65136  0.56998  0.27863  Biso   1.000  N 
  O47      1.0000 0.59530  0.50000  0.17046  Biso   1.000  O 
  C108     1.0000 0.65361  0.50000  0.15360  Biso   1.000  C 
  O48      1.0000 0.67047  0.50000  0.09529  Biso   1.000  O 
  H133     1.0000 0.89526  0.57622  0.23934  Biso   1.000  H 
  C109     1.0000 0.89135  0.53194  0.14311  Biso   1.000  C 
  H134     1.0000 0.85798  0.55396  0.10970  Biso   1.000  H 
  C110     1.0000 0.89313  0.46370  0.12873  Biso   1.000  C 
  C111     1.0000 0.95827  0.55569  0.12571  Biso   1.000  C 
  C112     1.0000 0.99160  0.47818  0.20292  Biso   1.000  C 
  C113     1.0000 0.93287  0.43210  0.17713  Biso   1.000  C 
  H135     1.0000 0.91388  0.45859  0.08041  Biso   1.000  H 
  H136     1.0000 0.84840  0.43584  0.12909  Biso   1.000  H 
  H137     1.0000 0.90527  0.40939  0.21584  Biso   1.000  H 
  H138     1.0000 0.95114  0.39258  0.14720  Biso   1.000  H 
  C114     1.0000 0.01449  0.52121  0.14979  Biso   1.000  C 
  H139     1.0000 0.05435  0.55427  0.15910  Biso   1.000  H 
  H140     1.0000 0.03253  0.48775  0.11276  Biso   1.000  H 
  H141     1.0000 0.96147  0.54673  0.07507  Biso   1.000  H 
  H142     1.0000 0.03391  0.45792  0.22582  Biso   1.000  H 
  H143     1.0000 0.95569  0.60297  0.13994  Biso   1.000  H 
  H144     1.0000 0.97421  0.50785  0.24116  Biso   1.000  H 
  C115     1.0000 0.69703  0.62847  0.28770  Biso   1.000  C 
  H145     1.0000 0.62544  0.58526  0.23878  Biso   1.000  H 
  C116     1.0000 0.67553  0.66717  0.34367  Biso   1.000  C 
  H146     1.0000 0.68715  0.65658  0.24659  Biso   1.000  H 
  C117     1.0000 0.77329  0.62539  0.29124  Biso   1.000  C 
  H147     1.0000 0.78680  0.60196  0.33639  Biso   1.000  H 
  C118     1.0000 0.81428  0.68337  0.29550  Biso   1.000  C 
  H148     1.0000 0.78945  0.60643  0.24579  Biso   1.000  H 
  C119     1.0000 0.79410  0.71593  0.35638  Biso   1.000  C 
  H149     1.0000 0.80273  0.71616  0.25654  Biso   1.000  H 
  H150     1.0000 0.86729  0.67208  0.29390  Biso   1.000  H 
  C120     1.0000 0.72192  0.72582  0.35769  Biso   1.000  C 
  H151     1.0000 0.81578  0.76344  0.35668  Biso   1.000  H 
  H152     1.0000 0.81607  0.68728  0.39174  Biso   1.000  H 
  H153     1.0000 0.72136  0.74332  0.31096  Biso   1.000  H 
  H154     1.0000 0.69846  0.76367  0.38764  Biso   1.000  H 
  H155     1.0000 0.66625  0.63289  0.38335  Biso   1.000  H 
  H156     1.0000 0.63104  0.68440  0.32939  Biso   1.000  H 
  C121     1.0000 0.34640  0.00000  0.34640  Biso   1.000  C 
  O49      1.0000 0.32954  0.00000  0.40471  Biso   1.000  O 
  O50      1.0000 0.40471  0.00000  0.32954  Biso   1.000  O 
  C122     1.0000 0.29500  0.00000  0.29500  Biso   1.000  C 
  C123     1.0000 0.31563  0.00000  0.23249  Biso   1.000  C 
  N13      1.0000 0.38454  0.02183  0.21347  Biso   1.000  N 
  H157     1.0000 0.27872  0.00000  0.13051  Biso   1.000  H 
  C124     1.0000 0.26751  0.00000  0.18442  Biso   1.000  C 
  C125     1.0000 0.20500  0.00000  0.20500  Biso   1.000  C 
  C126     1.0000 0.18442  0.00000  0.26751  Biso   1.000  C 
  C127     1.0000 0.23249  0.00000  0.31563  Biso   1.000  C 
  H158     1.0000 0.22128  0.00000  0.36954  Biso   1.000  H 
  N14      1.0000 0.11906  0.00738  0.28761  Biso   1.000  N 
  O51      1.0000 0.09530  0.00000  0.17046  Biso   1.000  O 
  C128     1.0000 0.15360  0.00000  0.15360  Biso   1.000  C 
  O52      1.0000 0.17046  0.00000  0.09529  Biso   1.000  O 
  H159     1.0000 0.39792  0.06499  0.23532  Biso   1.000  H 
  C129     1.0000 0.38891  0.02558  0.14131  Biso   1.000  C 
  H160     1.0000 0.35338  0.05658  0.11838  Biso   1.000  H 
  C130     1.0000 0.38638  0.95613  0.11432  Biso   1.000  C 
  C131     1.0000 0.45013  0.05517  0.11305  Biso   1.000  C 
  C132     1.0000 0.49503  0.95835  0.16368  Biso   1.000  C 
  C133     1.0000 0.43120  0.92032  0.15168  Biso   1.000  C 
  H161     1.0000 0.40330  0.95098  0.06599  Biso   1.000  H 
  H162     1.0000 0.34284  0.92815  0.11846  Biso   1.000  H 
  H163     1.0000 0.40872  0.91065  0.20097  Biso   1.000  H 
  H164     1.0000 0.43631  0.87360  0.13040  Biso   1.000  H 
  C134     1.0000 0.50591  0.01360  0.12026  Biso   1.000  C 
  H165     1.0000 0.54777  0.04050  0.13631  Biso   1.000  H 
  H166     1.0000 0.51193  0.99649  0.07107  Biso   1.000  H 
  H167     1.0000 0.43996  0.05888  0.06087  Biso   1.000  H 
  H168     1.0000 0.53490  0.92509  0.15219  Biso   1.000  H 
  H169     1.0000 0.46150  0.10325  0.13114  Biso   1.000  H 
  H170     1.0000 0.49885  0.97622  0.21436  Biso   1.000  H 
  C135     1.0000 0.11886  0.07361  0.30305  Biso   1.000  C 
  H171     1.0000 0.08800  0.97488  0.26661  Biso   1.000  H 
  C136     1.0000 0.13949  0.08901  0.37229  Biso   1.000  C 
  H172     1.0000 0.07204  0.08338  0.30194  Biso   1.000  H 
  C137     1.0000 0.14389  0.11862  0.25284  Biso   1.000  C 
  H173     1.0000 0.13550  0.10291  0.20317  Biso   1.000  H 
  C138     1.0000 0.21314  0.13937  0.26835  Biso   1.000  C 
  H174     1.0000 0.11213  0.15789  0.25850  Biso   1.000  H 
  C139     1.0000 0.22362  0.16861  0.33673  Biso   1.000  C 
  H175     1.0000 0.21946  0.17300  0.23199  Biso   1.000  H 
  H176     1.0000 0.24642  0.10214  0.26142  Biso   1.000  H 
  C140     1.0000 0.16011  0.15631  0.37319  Biso   1.000  C 
  H177     1.0000 0.23547  0.22056  0.34146  Biso   1.000  H 
  H178     1.0000 0.26348  0.14236  0.36290  Biso   1.000  H 
  H179     1.0000 0.12663  0.17937  0.34989  Biso   1.000  H 
  H180     1.0000 0.15631  0.17460  0.41622  Biso   1.000  H 
  H181     1.0000 0.18107  0.07420  0.39701  Biso   1.000  H 
  H182     1.0000 0.10164  0.07103  0.40182  Biso   1.000  H 
  C141     1.0000 0.34640  0.50000  0.84640  Biso   1.000  C 
  O53      1.0000 0.32954  0.50000  0.90471  Biso   1.000  O 
  O54      1.0000 0.40471  0.50000  0.82954  Biso   1.000  O 
  C142     1.0000 0.29500  0.50000  0.79500  Biso   1.000  C 
  C143     1.0000 0.31563  0.50000  0.73249  Biso   1.000  C 
  N15      1.0000 0.37390  0.53983  0.71704  Biso   1.000  N 
  H183     1.0000 0.27872  0.50000  0.63051  Biso   1.000  H 
  C144     1.0000 0.26751  0.50000  0.68442  Biso   1.000  C 
  C145     1.0000 0.20500  0.50000  0.70500  Biso   1.000  C 
  C146     1.0000 0.18442  0.50000  0.76751  Biso   1.000  C 
  C147     1.0000 0.23249  0.50000  0.81563  Biso   1.000  C 
  H184     1.0000 0.22128  0.50000  0.86954  Biso   1.000  H 
  N16      1.0000 0.13478  0.55257  0.78222  Biso   1.000  N 
  O55      1.0000 0.09530  0.50000  0.67046  Biso   1.000  O 
  C148     1.0000 0.15360  0.50000  0.65360  Biso   1.000  C 
  O56      1.0000 0.17046  0.50000  0.59529  Biso   1.000  O 
  H185     1.0000 0.36362  0.58801  0.71741  Biso   1.000  H 
  C149     1.0000 0.39085  0.52178  0.65141  Biso   1.000  C 
  H186     1.0000 0.35711  0.55159  0.62631  Biso   1.000  H 
  C150     1.0000 0.38656  0.44250  0.65011  Biso   1.000  C 
  C151     1.0000 0.45542  0.54534  0.63618  Biso   1.000  C 
  C152     1.0000 0.47702  0.47071  0.72726  Biso   1.000  C 
  C153     1.0000 0.41422  0.42137  0.71384  Biso   1.000  C 
  H187     1.0000 0.41689  0.41876  0.61455  Biso   1.000  H 
  H188     1.0000 0.33947  0.42133  0.64486  Biso   1.000  H 
  H189     1.0000 0.38407  0.41678  0.75717  Biso   1.000  H 
  H190     1.0000 0.41209  0.36978  0.69942  Biso   1.000  H 
  C154     1.0000 0.50071  0.49826  0.66722  Biso   1.000  C 
  H191     1.0000 0.55007  0.51662  0.67111  Biso   1.000  H 
  H192     1.0000 0.50285  0.45873  0.63261  Biso   1.000  H 
  H193     1.0000 0.46427  0.54283  0.58477  Biso   1.000  H 
  H194     1.0000 0.52238  0.45319  0.74337  Biso   1.000  H 
  H195     1.0000 0.45785  0.59691  0.64641  Biso   1.000  H 
  H196     1.0000 0.47334  0.51393  0.75476  Biso   1.000  H 
  C155     1.0000 0.17079  0.61573  0.77253  Biso   1.000  C 
  H197     1.0000 0.12249  0.54841  0.83071  Biso   1.000  H 
  C156     1.0000 0.16125  0.66269  0.82584  Biso   1.000  C 
  H198     1.0000 0.14761  0.63047  0.72756  Biso   1.000  H 
  C157     1.0000 0.24388  0.62477  0.75853  Biso   1.000  C 
  H199     1.0000 0.25799  0.59909  0.72308  Biso   1.000  H 
  C158     1.0000 0.30036  0.64210  0.80608  Biso   1.000  C 
  H200     1.0000 0.24420  0.67076  0.73692  Biso   1.000  H 
  C159     1.0000 0.27818  0.69654  0.84364  Biso   1.000  C 
  H201     1.0000 0.34360  0.66102  0.77998  Biso   1.000  H 
  H202     1.0000 0.31516  0.60761  0.84425  Biso   1.000  H 
  C160     1.0000 0.21618  0.67392  0.87093  Biso   1.000  C 
  H203     1.0000 0.27082  0.74298  0.82053  Biso   1.000  H 
  H204     1.0000 0.31380  0.70546  0.88060  Biso   1.000  H 
  H205     1.0000 0.20016  0.71606  0.89582  Biso   1.000  H 
  H206     1.0000 0.22376  0.62960  0.90006  Biso   1.000  H 
  H207     1.0000 0.12035  0.64479  0.84866  Biso   1.000  H 
  H208     1.0000 0.15340  0.70995  0.81223  Biso   1.000  H 
  C161     1.0000 0.84640  0.15360  0.00000  Biso   1.000  C 
  O57      1.0000 0.90471  0.17046  0.00000  Biso   1.000  O 
  O58      1.0000 0.82954  0.09529  0.00000  Biso   1.000  O 
  C162     1.0000 0.79500  0.20500  0.00000  Biso   1.000  C 
  C163     1.0000 0.73249  0.18437  0.00000  Biso   1.000  C 
  N17      1.0000 0.73772  0.14584  0.06990  Biso   1.000  N 
  H209     1.0000 0.63051  0.22128  0.00000  Biso   1.000  H 
  C164     1.0000 0.68442  0.23249  0.00000  Biso   1.000  C 
  C165     1.0000 0.70500  0.29500  0.00000  Biso   1.000  C 
  C166     1.0000 0.76751  0.31558  0.00000  Biso   1.000  C 
  C167     1.0000 0.81563  0.26751  0.00000  Biso   1.000  C 
  H210     1.0000 0.86954  0.27872  0.00000  Biso   1.000  H 
  N18      1.0000 0.78413  0.38303  0.01412  Biso   1.000  N 
  O59      1.0000 0.67046  0.40470  0.00000  Biso   1.000  O 
  C168     1.0000 0.65360  0.34640  0.00000  Biso   1.000  C 
  O60      1.0000 0.59529  0.32954  0.00000  Biso   1.000  O 
  H211     1.0000 0.69215  0.14425  0.08925  Biso   1.000  H 
  C169     1.0000 0.78902  0.17633  0.11879  Biso   1.000  C 
  H212     1.0000 0.77442  0.21943  0.11290  Biso   1.000  H 
  C170     1.0000 0.85830  0.21083  0.11494  Biso   1.000  C 
  C171     1.0000 0.79125  0.14947  0.18477  Biso   1.000  C 
  C172     1.0000 0.85417  0.26061  0.22644  Biso   1.000  C 
  C173     1.0000 0.86147  0.27576  0.15558  Biso   1.000  C 
  H213     1.0000 0.88568  0.22991  0.07847  Biso   1.000  H 
  H214     1.0000 0.89060  0.17193  0.12993  Biso   1.000  H 
  H215     1.0000 0.90558  0.29938  0.15019  Biso   1.000  H 
  H216     1.0000 0.83467  0.31482  0.13267  Biso   1.000  H 
  C174     1.0000 0.83796  0.18764  0.23504  Biso   1.000  C 
  H217     1.0000 0.88573  0.16678  0.22601  Biso   1.000  H 
  H218     1.0000 0.83086  0.17835  0.28562  Biso   1.000  H 
  H219     1.0000 0.81722  0.10683  0.17311  Biso   1.000  H 
  H220     1.0000 0.89768  0.26549  0.25123  Biso   1.000  H 
  H221     1.0000 0.74329  0.13965  0.19661  Biso   1.000  H 
  H222     1.0000 0.82395  0.29548  0.24983  Biso   1.000  H 
  C175     1.0000 0.77820  0.42447  0.95946  Biso   1.000  C 
  H223     1.0000 0.76733  0.40127  0.05808  Biso   1.000  H 
  C176     1.0000 0.81427  0.48615  0.97327  Biso   1.000  C 
  H224     1.0000 0.74202  0.45800  0.96500  Biso   1.000  H 
  C177     1.0000 0.76158  0.38994  0.89441  Biso   1.000  C 
  H225     1.0000 0.75026  0.33990  0.89654  Biso   1.000  H 
  C178     1.0000 0.81816  0.38343  0.84964  Biso   1.000  C 
  H226     1.0000 0.71938  0.40988  0.87202  Biso   1.000  H 
  C179     1.0000 0.87171  0.43443  0.87415  Biso   1.000  C 
  H227     1.0000 0.80283  0.38500  0.79756  Biso   1.000  H 
  H228     1.0000 0.83574  0.33578  0.85241  Biso   1.000  H 
  C180     1.0000 0.87459  0.47347  0.94676  Biso   1.000  C 
  H229     1.0000 0.87166  0.47113  0.85078  Biso   1.000  H 
  H230     1.0000 0.91297  0.41065  0.85468  Biso   1.000  H 
  H231     1.0000 0.89121  0.45070  0.98716  Biso   1.000  H 
  H232     1.0000 0.89987  0.51583  0.95529  Biso   1.000  H 
  H233     1.0000 0.81490  0.49324  0.02845  Biso   1.000  H 
  H234     1.0000 0.79700  0.53499  0.95218  Biso   1.000  H 
  C181     1.0000 0.84640  0.65360  0.50000  Biso   1.000  C 
  O61      1.0000 0.90471  0.67046  0.50000  Biso   1.000  O 
  O62      1.0000 0.82954  0.59529  0.50000  Biso   1.000  O 
  C182     1.0000 0.79500  0.70500  0.50000  Biso   1.000  C 
  C183     1.0000 0.73249  0.68437  0.50000  Biso   1.000  C 
  N19      1.0000 0.72061  0.61790  0.47918  Biso   1.000  N 
  H235     1.0000 0.63051  0.72128  0.50000  Biso   1.000  H 
  C184     1.0000 0.68442  0.73248  0.50000  Biso   1.000  C 
  C185     1.0000 0.70500  0.79499  0.50000  Biso   1.000  C 
  C186     1.0000 0.76751  0.81558  0.50000  Biso   1.000  C 
  C187     1.0000 0.81563  0.76751  0.50000  Biso   1.000  C 
  H236     1.0000 0.86954  0.77872  0.50000  Biso   1.000  H 
  N20      1.0000 0.77433  0.84952  0.56495  Biso   1.000  N 
  O63      1.0000 0.67046  0.90470  0.50000  Biso   1.000  O 
  C188     1.0000 0.65360  0.84639  0.50000  Biso   1.000  C 
  O64      1.0000 0.59529  0.82953  0.50000  Biso   1.000  O 
  H237     1.0000 0.74437  0.59600  0.44092  Biso   1.000  H 
  C189     1.0000 0.70535  0.58284  0.53501  Biso   1.000  C 
  H238     1.0000 0.72920  0.53598  0.53305  Biso   1.000  H 
  C190     1.0000 0.72541  0.61768  0.59928  Biso   1.000  C 
  C191     1.0000 0.63492  0.58203  0.52031  Biso   1.000  C 
  C192     1.0000 0.61020  0.60481  0.62808  Biso   1.000  C 
  C193     1.0000 0.66644  0.64969  0.62361  Biso   1.000  C 
  H239     1.0000 0.76733  0.65043  0.59815  Biso   1.000  H 
  H240     1.0000 0.74344  0.58900  0.63019  Biso   1.000  H 
  H241     1.0000 0.67294  0.66951  0.66585  Biso   1.000  H 
  H242     1.0000 0.65027  0.68553  0.59345  Biso   1.000  H 
  C194     1.0000 0.58638  0.57746  0.57295  Biso   1.000  C 
  H243     1.0000 0.56859  0.53122  0.57623  Biso   1.000  H 
  H244     1.0000 0.54310  0.59994  0.56591  Biso   1.000  H 
  H245     1.0000 0.62595  0.63033  0.52228  Biso   1.000  H 
  H246     1.0000 0.63280  0.55876  0.63724  Biso   1.000  H 
  H247     1.0000 0.62511  0.57424  0.47151  Biso   1.000  H 
  H248     1.0000 0.57408  0.61665  0.66178  Biso   1.000  H 
  C195     1.0000 0.77685  0.90986  0.58481  Biso   1.000  C 
  H249     1.0000 0.78649  0.81476  0.59909  Biso   1.000  H 
  C196     1.0000 0.84852  0.90870  0.60697  Biso   1.000  C 
  H250     1.0000 0.73786  0.91097  0.62024  Biso   1.000  H 
  C197     1.0000 0.76550  0.96882  0.53191  Biso   1.000  C 
  H251     1.0000 0.72233  0.99093  0.51311  Biso   1.000  H 
  C198     1.0000 0.79034  0.95776  0.47432  Biso   1.000  C 
  H252     1.0000 0.79402  0.01110  0.54601  Biso   1.000  H 
  C199     1.0000 0.84688  0.91748  0.48813  Biso   1.000  C 
  H253     1.0000 0.80254  0.00719  0.45649  Biso   1.000  H 
  H254     1.0000 0.75659  0.93230  0.44236  Biso   1.000  H 
  C200     1.0000 0.88653  0.93492  0.54889  Biso   1.000  C 
  H255     1.0000 0.85107  0.91245  0.44017  Biso   1.000  H 
  H256     1.0000 0.85900  0.87248  0.50074  Biso   1.000  H 
  H257     1.0000 0.93516  0.91935  0.55655  Biso   1.000  H 
  H258     1.0000 0.89133  0.98764  0.54109  Biso   1.000  H 
  H259     1.0000 0.87050  0.86051  0.61300  Biso   1.000  H 
  H260     1.0000 0.84965  0.92484  0.65454  Biso   1.000  H 
  C201     1.0000 0.34640  0.15360  0.50000  Biso   1.000  C 
  O65      1.0000 0.40471  0.17046  0.50000  Biso   1.000  O 
  O66      1.0000 0.32954  0.09529  0.50000  Biso   1.000  O 
  C202     1.0000 0.29500  0.20500  0.50000  Biso   1.000  C 
  C203     1.0000 0.23249  0.18437  0.50000  Biso   1.000  C 
  N21      1.0000 0.21952  0.11884  0.50466  Biso   1.000  N 
  H261     1.0000 0.13051  0.22128  0.50000  Biso   1.000  H 
  C204     1.0000 0.18442  0.23249  0.50000  Biso   1.000  C 
  C205     1.0000 0.20500  0.29500  0.50000  Biso   1.000  C 
  C206     1.0000 0.26751  0.31558  0.50000  Biso   1.000  C 
  C207     1.0000 0.31563  0.26751  0.50000  Biso   1.000  C 
  H262     1.0000 0.36954  0.27872  0.50000  Biso   1.000  H 
  N22      1.0000 0.28855  0.37907  0.53553  Biso   1.000  N 
  O67      1.0000 0.17046  0.40470  0.50000  Biso   1.000  O 
  C208     1.0000 0.15360  0.34640  0.50000  Biso   1.000  C 
  O68      1.0000 0.09529  0.32954  0.50000  Biso   1.000  O 
  H263     1.0000 0.17141  0.11568  0.49188  Biso   1.000  H 
  C209     1.0000 0.23877  0.11460  0.57497  Biso   1.000  C 
  H264     1.0000 0.24350  0.06643  0.57834  Biso   1.000  H 
  C210     1.0000 0.30798  0.13885  0.61162  Biso   1.000  C 
  C211     1.0000 0.18011  0.14444  0.60268  Biso   1.000  C 
  C212     1.0000 0.25202  0.14813  0.70174  Biso   1.000  C 
  C213     1.0000 0.31636  0.14940  0.67894  Biso   1.000  C 
  H265     1.0000 0.31638  0.19034  0.60253  Biso   1.000  H 
  H266     1.0000 0.35399  0.11150  0.60168  Biso   1.000  H 
  H267     1.0000 0.34646  0.11149  0.69575  Biso   1.000  H 
  H268     1.0000 0.34064  0.19599  0.69301  Biso   1.000  H 
  C214     1.0000 0.18408  0.13903  0.66319  Biso   1.000  C 
  H269     1.0000 0.16598  0.09039  0.65620  Biso   1.000  H 
  H270     1.0000 0.14727  0.17002  0.68399  Biso   1.000  H 
  H271     1.0000 0.18278  0.19010  0.59588  Biso   1.000  H 
  H272     1.0000 0.25480  0.10577  0.72487  Biso   1.000  H 
  H273     1.0000 0.13199  0.13099  0.58078  Biso   1.000  H 
  H274     1.0000 0.25146  0.18970  0.73173  Biso   1.000  H 
  C215     1.0000 0.31168  0.44593  0.51673  Biso   1.000  C 
  H275     1.0000 0.26533  0.38317  0.57926  Biso   1.000  H 
  C216     1.0000 0.37949  0.48809  0.51728  Biso   1.000  C 
  H276     1.0000 0.29657  0.47186  0.55284  Biso   1.000  H 
  C217     1.0000 0.26365  0.47212  0.47018  Biso   1.000  C 
  H277     1.0000 0.24727  0.43271  0.43387  Biso   1.000  H 
  C218     1.0000 0.27656  0.54585  0.46532  Biso   1.000  C 
  H278     1.0000 0.22353  0.48409  0.49918  Biso   1.000  H 
  C219     1.0000 0.34112  0.56873  0.44068  Biso   1.000  C 
  H279     1.0000 0.27387  0.55840  0.51163  Biso   1.000  H 
  H280     1.0000 0.24366  0.57159  0.43470  Biso   1.000  H 
  C220     1.0000 0.39290  0.52240  0.45890  Biso   1.000  C 
  H281     1.0000 0.34917  0.61431  0.46209  Biso   1.000  H 
  H282     1.0000 0.34373  0.57150  0.38626  Biso   1.000  H 
  H283     1.0000 0.39780  0.48701  0.42597  Biso   1.000  H 
  H284     1.0000 0.43938  0.54526  0.46907  Biso   1.000  H 
  H285     1.0000 0.42363  0.46992  0.53493  Biso   1.000  H 
  H286     1.0000 0.37279  0.53312  0.54049  Biso   1.000  H 
  C221     1.0000 0.34640  0.65360  0.00000  Biso   1.000  C 
  O69      1.0000 0.40471  0.67046  0.00000  Biso   1.000  O 
  O70      1.0000 0.32954  0.59529  0.00000  Biso   1.000  O 
  C222     1.0000 0.29500  0.70500  0.00000  Biso   1.000  C 
  C223     1.0000 0.23249  0.68437  0.00000  Biso   1.000  C 
  N23      1.0000 0.23169  0.64963  0.07210  Biso   1.000  N 
  H287     1.0000 0.13051  0.72128  0.00000  Biso   1.000  H 
  C224     1.0000 0.18442  0.73248  0.00000  Biso   1.000  C 
  C225     1.0000 0.20500  0.79499  0.00000  Biso   1.000  C 
  C226     1.0000 0.26751  0.81558  0.00000  Biso   1.000  C 
  C227     1.0000 0.31563  0.76751  0.00000  Biso   1.000  C 
  H288     1.0000 0.36954  0.77872  0.00000  Biso   1.000  H 
  N24      1.0000 0.28176  0.88738  0.01898  Biso   1.000  N 
  O71      1.0000 0.17046  0.90470  0.00000  Biso   1.000  O 
  C228     1.0000 0.15360  0.84639  0.00000  Biso   1.000  C 
  O72      1.0000 0.09529  0.82953  0.00000  Biso   1.000  O 
  H289     1.0000 0.25076  0.60358  0.06837  Biso   1.000  H 
  C229     1.0000 0.27568  0.68594  0.12433  Biso   1.000  C 
  H290     1.0000 0.24186  0.69998  0.15886  Biso   1.000  H 
  C230     1.0000 0.33236  0.74217  0.12084  Biso   1.000  C 
  C231     1.0000 0.31470  0.64057  0.16117  Biso   1.000  C 
  C232     1.0000 0.34601  0.74157  0.23863  Biso   1.000  C 
  C233     1.0000 0.35251  0.77846  0.18012  Biso   1.000  C 
  H291     1.0000 0.32527  0.78618  0.10011  Biso   1.000  H 
  H292     1.0000 0.37738  0.72176  0.09938  Biso   1.000  H 
  H293     1.0000 0.39934  0.78755  0.16897  Biso   1.000  H 
  H294     1.0000 0.33518  0.82693  0.19280  Biso   1.000  H 
  C234     1.0000 0.35070  0.67191  0.22104  Biso   1.000  C 
  H295     1.0000 0.39810  0.66475  0.20560  Biso   1.000  H 
  H296     1.0000 0.35061  0.65213  0.26603  Biso   1.000  H 
  H297     1.0000 0.34788  0.61615  0.12516  Biso   1.000  H 
  H298     1.0000 0.38331  0.75760  0.27276  Biso   1.000  H 
  H299     1.0000 0.28013  0.60725  0.17681  Biso   1.000  H 
  H300     1.0000 0.29944  0.75405  0.25526  Biso   1.000  H 
  C235     1.0000 0.26878  0.93786  0.96787  Biso   1.000  C 
  H301     1.0000 0.25863  0.90442  0.06014  Biso   1.000  H 
  C236     1.0000 0.31466  0.99215  0.97639  Biso   1.000  C 
  H302     1.0000 0.23417  0.97313  0.98301  Biso   1.000  H 
  C237     1.0000 0.25327  0.89485  0.90389  Biso   1.000  C 
  H303     1.0000 0.22027  0.85453  0.90490  Biso   1.000  H 
  C238     1.0000 0.31519  0.86228  0.88781  Biso   1.000  C 
  H304     1.0000 0.23274  0.91150  0.86428  Biso   1.000  H 
  C239     1.0000 0.37073  0.89107  0.93206  Biso   1.000  C 
  H305     1.0000 0.31880  0.86587  0.83441  Biso   1.000  H 
  H306     1.0000 0.31096  0.81000  0.89593  Biso   1.000  H 
  C240     1.0000 0.37300  0.96956  0.94539  Biso   1.000  C 
  H307     1.0000 0.40695  0.86306  0.91288  Biso   1.000  H 
  H308     1.0000 0.37236  0.87333  0.98021  Biso   1.000  H 
  H309     1.0000 0.41054  0.98561  0.97825  Biso   1.000  H 
  H310     1.0000 0.37952  0.00252  0.90426  Biso   1.000  H 
  H311     1.0000 0.32141  0.00130  0.02756  Biso   1.000  H 
  H312     1.0000 0.29961  0.03979  0.95683  Biso   1.000  H 
  C241     1.0000 0.84640  0.84640  0.00000  Biso   1.000  C 
  O73      1.0000 0.90471  0.82954  0.00000  Biso   1.000  O 
  O74      1.0000 0.82954  0.90471  0.00000  Biso   1.000  O 
  C242     1.0000 0.79500  0.79500  0.00000  Biso   1.000  C 
  C243     1.0000 0.73249  0.81563  0.00000  Biso   1.000  C 
  N25      1.0000 0.71985  0.87660  0.04416  Biso   1.000  N 
  H313     1.0000 0.63051  0.77872  0.00000  Biso   1.000  H 
  C244     1.0000 0.68442  0.76752  0.00000  Biso   1.000  C 
  C245     1.0000 0.70500  0.70501  0.00000  Biso   1.000  C 
  C246     1.0000 0.76751  0.68442  0.00000  Biso   1.000  C 
  C247     1.0000 0.81563  0.73249  0.00000  Biso   1.000  C 
  H314     1.0000 0.86954  0.72128  0.00000  Biso   1.000  H 
  N26      1.0000 0.78684  0.63007  0.04678  Biso   1.000  N 
  O75      1.0000 0.67046  0.59530  0.00000  Biso   1.000  O 
  C248     1.0000 0.65360  0.65361  0.00000  Biso   1.000  C 
  O76      1.0000 0.59529  0.67047  0.00000  Biso   1.000  O 
  H315     1.0000 0.75274  0.89305  0.07856  Biso   1.000  H 
  C249     1.0000 0.68118  0.92415  0.01716  Biso   1.000  C 
  H316     1.0000 0.65763  0.89567  0.99300  Biso   1.000  H 
  C250     1.0000 0.70519  0.95034  0.96011  Biso   1.000  C 
  C251     1.0000 0.63075  0.96494  0.05566  Biso   1.000  C 
  C252     1.0000 0.67831  0.05423  0.01123  Biso   1.000  C 
  C253     1.0000 0.72939  0.01432  0.98278  Biso   1.000  C 
  H317     1.0000 0.66320  0.95608  0.92509  Biso   1.000  H 
  H318     1.0000 0.74210  0.92146  0.93418  Biso   1.000  H 
  H319     1.0000 0.76529  0.00348  0.01712  Biso   1.000  H 
  H320     1.0000 0.74871  0.04756  0.95029  Biso   1.000  H 
  C254     1.0000 0.61722  0.02505  0.01968  Biso   1.000  C 
  H321     1.0000 0.58668  0.06005  0.04538  Biso   1.000  H 
  H322     1.0000 0.59767  0.01909  0.97149  Biso   1.000  H 
  H323     1.0000 0.58846  0.94313  0.06431  Biso   1.000  H 
  H324     1.0000 0.66794  0.09886  0.98904  Biso   1.000  H 
  H325     1.0000 0.63946  0.98510  0.10121  Biso   1.000  H 
  H326     1.0000 0.68967  0.05768  0.05936  Biso   1.000  H 
  C255     1.0000 0.79606  0.65532  0.11394  Biso   1.000  C 
  H327     1.0000 0.76251  0.58800  0.04671  Biso   1.000  H 
  C256     1.0000 0.86131  0.68251  0.13555  Biso   1.000  C 
  H328     1.0000 0.78644  0.61435  0.14375  Biso   1.000  H 
  C257     1.0000 0.74964  0.70365  0.13771  Biso   1.000  C 
  H329     1.0000 0.70405  0.69315  0.11623  Biso   1.000  H 
  C258     1.0000 0.76810  0.77570  0.14969  Biso   1.000  C 
  H330     1.0000 0.74702  0.68769  0.18522  Biso   1.000  H 
  C259     1.0000 0.83009  0.80365  0.16709  Biso   1.000  C 
  H331     1.0000 0.73594  0.79610  0.18591  Biso   1.000  H 
  H332     1.0000 0.76275  0.79768  0.10806  Biso   1.000  H 
  C260     1.0000 0.87490  0.75085  0.16111  Biso   1.000  C 
  H333     1.0000 0.82521  0.81705  0.21800  Biso   1.000  H 
  H334     1.0000 0.84446  0.84823  0.14094  Biso   1.000  H 
  H335     1.0000 0.89100  0.74433  0.21031  Biso   1.000  H 
  H336     1.0000 0.90994  0.76988  0.12841  Biso   1.000  H 
  H337     1.0000 0.89195  0.67206  0.09695  Biso   1.000  H 
  H338     1.0000 0.87636  0.65357  0.17689  Biso   1.000  H 
  C261     1.0000 0.84640  0.34640  0.50000  Biso   1.000  C 
  O77      1.0000 0.90471  0.32954  0.50000  Biso   1.000  O 
  O78      1.0000 0.82954  0.40471  0.50000  Biso   1.000  O 
  C262     1.0000 0.79500  0.29500  0.50000  Biso   1.000  C 
  C263     1.0000 0.73249  0.31563  0.50000  Biso   1.000  C 
  N27      1.0000 0.71305  0.37958  0.52383  Biso   1.000  N 
  H339     1.0000 0.63051  0.27872  0.50000  Biso   1.000  H 
  C264     1.0000 0.68442  0.26751  0.50000  Biso   1.000  C 
  C265     1.0000 0.70500  0.20500  0.50000  Biso   1.000  C 
  C266     1.0000 0.76751  0.18442  0.50000  Biso   1.000  C 
  C267     1.0000 0.81563  0.23249  0.50000  Biso   1.000  C 
  H340     1.0000 0.86954  0.22128  0.50000  Biso   1.000  H 
  N28      1.0000 0.78352  0.12237  0.52968  Biso   1.000  N 
  O79      1.0000 0.67046  0.09530  0.50000  Biso   1.000  O 
  C268     1.0000 0.65360  0.15360  0.50000  Biso   1.000  C 
  O80      1.0000 0.59529  0.17046  0.50000  Biso   1.000  O 
  H341     1.0000 0.72473  0.38304  0.57224  Biso   1.000  H 
  C269     1.0000 0.64434  0.38248  0.50962  Biso   1.000  C 
  H342     1.0000 0.61593  0.35387  0.54132  Biso   1.000  H 
  C270     1.0000 0.63318  0.36415  0.43254  Biso   1.000  C 
  C271     1.0000 0.60978  0.43908  0.53451  Biso   1.000  C 
  C272     1.0000 0.63620  0.47385  0.42809  Biso   1.000  C 
  C273     1.0000 0.66877  0.41353  0.40143  Biso   1.000  C 
  H343     1.0000 0.58338  0.36104  0.41941  Biso   1.000  H 
  H344     1.0000 0.65451  0.32284  0.40936  Biso   1.000  H 
  H345     1.0000 0.71972  0.41334  0.41705  Biso   1.000  H 
  H346     1.0000 0.67130  0.39954  0.34977  Biso   1.000  H 
  C274     1.0000 0.57861  0.46676  0.47647  Biso   1.000  C 
  H347     1.0000 0.54825  0.50552  0.48217  Biso   1.000  H 
  H348     1.0000 0.54625  0.43044  0.46773  Biso   1.000  H 
  H349     1.0000 0.56871  0.43043  0.56917  Biso   1.000  H 
  H350     1.0000 0.62556  0.50848  0.39398  Biso   1.000  H 
  H351     1.0000 0.64720  0.46842  0.55830  Biso   1.000  H 
  H352     1.0000 0.67668  0.49486  0.45476  Biso   1.000  H 
  C275     1.0000 0.78115  0.14570  0.59758  Biso   1.000  C 
  H353     1.0000 0.82946  0.11323  0.51258  Biso   1.000  H 
  C276     1.0000 0.84241  0.14085  0.62995  Biso   1.000  C 
  H354     1.0000 0.74854  0.10852  0.61865  Biso   1.000  H 
  C277     1.0000 0.75462  0.21457  0.62336  Biso   1.000  C 
  H355     1.0000 0.71028  0.23162  0.60539  Biso   1.000  H 
  C278     1.0000 0.79653  0.27375  0.64188  Biso   1.000  C 
  H356     1.0000 0.74227  0.20036  0.66749  Biso   1.000  H 
  C279     1.0000 0.86524  0.27237  0.63558  Biso   1.000  C 
  H357     1.0000 0.79840  0.27978  0.69348  Biso   1.000  H 
  H358     1.0000 0.77832  0.31858  0.62250  Biso   1.000  H 
  C280     1.0000 0.88192  0.20210  0.64463  Biso   1.000  C 
  H359     1.0000 0.88773  0.30538  0.67062  Biso   1.000  H 
  H360     1.0000 0.88069  0.28899  0.59207  Biso   1.000  H 
  H361     1.0000 0.89391  0.19521  0.69526  Biso   1.000  H 
  H362     1.0000 0.92172  0.19662  0.61247  Biso   1.000  H 
  H363     1.0000 0.86722  0.10845  0.59949  Biso   1.000  H 
  H364     1.0000 0.82798  0.11944  0.67443  Biso   1.000  H 
  C281     1.0000 0.34640  0.84640  0.50000  Biso   1.000  C 
  O81      1.0000 0.40471  0.82954  0.50000  Biso   1.000  O 
  O82      1.0000 0.32954  0.90471  0.50000  Biso   1.000  O 
  C282     1.0000 0.29500  0.79500  0.50000  Biso   1.000  C 
  C283     1.0000 0.23249  0.81563  0.50000  Biso   1.000  C 
  N29      1.0000 0.21919  0.87352  0.54058  Biso   1.000  N 
  H365     1.0000 0.13051  0.77872  0.50000  Biso   1.000  H 
  C284     1.0000 0.18442  0.76752  0.50000  Biso   1.000  C 
  C285     1.0000 0.20500  0.70501  0.50000  Biso   1.000  C 
  C286     1.0000 0.26751  0.68442  0.50000  Biso   1.000  C 
  C287     1.0000 0.31563  0.73249  0.50000  Biso   1.000  C 
  H366     1.0000 0.36954  0.72128  0.50000  Biso   1.000  H 
  N30      1.0000 0.28428  0.64376  0.56157  Biso   1.000  N 
  O83      1.0000 0.17046  0.59530  0.50000  Biso   1.000  O 
  C288     1.0000 0.15360  0.65361  0.50000  Biso   1.000  C 
  O84      1.0000 0.09529  0.67047  0.50000  Biso   1.000  O 
  H367     1.0000 0.21601  0.85824  0.58737  Biso   1.000  H 
  C289     1.0000 0.16095  0.89388  0.51493  Biso   1.000  C 
  H368     1.0000 0.12682  0.86632  0.53343  Biso   1.000  H 
  C290     1.0000 0.16839  0.89644  0.43774  Biso   1.000  C 
  C291     1.0000 0.13986  0.95255  0.54574  Biso   1.000  C 
  C292     1.0000 0.22986  0.98627  0.47566  Biso   1.000  C 
  C293     1.0000 0.23218  0.91917  0.42724  Biso   1.000  C 
  H369     1.0000 0.13586  0.93185  0.41375  Biso   1.000  H 
  H370     1.0000 0.16320  0.84807  0.41207  Biso   1.000  H 
  H371     1.0000 0.27309  0.88842  0.42223  Biso   1.000  H 
  H372     1.0000 0.22323  0.91150  0.37605  Biso   1.000  H 
  C294     1.0000 0.16023  0.00345  0.50396  Biso   1.000  C 
  H373     1.0000 0.15496  0.03832  0.54246  Biso   1.000  H 
  H374     1.0000 0.12273  0.01157  0.46979  Biso   1.000  H 
  H375     1.0000 0.08817  0.96084  0.55233  Biso   1.000  H 
  H376     1.0000 0.24621  0.02980  0.45466  Biso   1.000  H 
  H377     1.0000 0.16124  0.94918  0.59123  Biso   1.000  H 
  H378     1.0000 0.25813  0.98028  0.51877  Biso   1.000  H 
  C295     1.0000 0.29865  0.68169  0.62241  Biso   1.000  C 
  H379     1.0000 0.32934  0.62510  0.55357  Biso   1.000  H 
  C296     1.0000 0.36530  0.70854  0.63260  Biso   1.000  C 
  H380     1.0000 0.29941  0.64214  0.65609  Biso   1.000  H 
  C297     1.0000 0.25248  0.73058  0.63420  Biso   1.000  C 
  H381     1.0000 0.24527  0.75546  0.59505  Biso   1.000  H 
  C298     1.0000 0.26660  0.78271  0.68108  Biso   1.000  C 
  H382     1.0000 0.21295  0.69480  0.64170  Biso   1.000  H 
  C299     1.0000 0.31746  0.82696  0.66643  Biso   1.000  C 
  H383     1.0000 0.27709  0.76360  0.72797  Biso   1.000  H 
  H384     1.0000 0.22735  0.81282  0.67824  Biso   1.000  H 
  C300     1.0000 0.36949  0.78343  0.64680  Biso   1.000  C 
  H385     1.0000 0.32466  0.85639  0.71153  Biso   1.000  H 
  H386     1.0000 0.30863  0.86297  0.62865  Biso   1.000  H 
  H387     1.0000 0.39122  0.78667  0.69486  Biso   1.000  H 
  H388     1.0000 0.39620  0.80735  0.61204  Biso   1.000  H 
  H389     1.0000 0.39719  0.68703  0.59666  Biso   1.000  H 
  H390     1.0000 0.38345  0.68985  0.67893  Biso   1.000  H 
  C301     1.0000 0.34640  0.34640  0.00000  Biso   1.000  C 
  O85      1.0000 0.40471  0.32954  0.00000  Biso   1.000  O 
  O86      1.0000 0.32954  0.40471  0.00000  Biso   1.000  O 
  C302     1.0000 0.29500  0.29500  0.00000  Biso   1.000  C 
  C303     1.0000 0.23249  0.31563  0.00000  Biso   1.000  C 
  N31      1.0000 0.21682  0.37670  0.03903  Biso   1.000  N 
  H391     1.0000 0.13051  0.27872  0.00000  Biso   1.000  H 
  C304     1.0000 0.18442  0.26751  0.00000  Biso   1.000  C 
  C305     1.0000 0.20500  0.20500  0.00000  Biso   1.000  C 
  C306     1.0000 0.26751  0.18442  0.00000  Biso   1.000  C 
  C307     1.0000 0.31563  0.23249  0.00000  Biso   1.000  C 
  H392     1.0000 0.36954  0.22128  0.00000  Biso   1.000  H 
  N32      1.0000 0.28502  0.13872  0.05937  Biso   1.000  N 
  O87      1.0000 0.17046  0.09530  0.00000  Biso   1.000  O 
  C308     1.0000 0.15360  0.15360  0.00000  Biso   1.000  C 
  O88      1.0000 0.09529  0.17046  0.00000  Biso   1.000  O 
  H393     1.0000 0.22043  0.37060  0.08880  Biso   1.000  H 
  C309     1.0000 0.15665  0.40235  0.01735  Biso   1.000  C 
  H394     1.0000 0.12282  0.37706  0.04368  Biso   1.000  H 
  C310     1.0000 0.15704  0.39617  0.94303  Biso   1.000  C 
  C311     1.0000 0.13584  0.47094  0.03406  Biso   1.000  C 
  C312     1.0000 0.23279  0.49062  0.97335  Biso   1.000  C 
  C313     1.0000 0.22201  0.42122  0.92868  Biso   1.000  C 
  H395     1.0000 0.12849  0.43028  0.91596  Biso   1.000  H 
  H396     1.0000 0.14903  0.34791  0.92532  Biso   1.000  H 
  H397     1.0000 0.26459  0.39527  0.92741  Biso   1.000  H 
  H398     1.0000 0.21416  0.41063  0.87744  Biso   1.000  H 
  C314     1.0000 0.17203  0.51966  0.99377  Biso   1.000  C 
  H399     1.0000 0.17757  0.56405  0.01904  Biso   1.000  H 
  H400     1.0000 0.14819  0.52900  0.94820  Biso   1.000  H 
  H401     1.0000 0.08543  0.47935  0.02069  Biso   1.000  H 
  H402     1.0000 0.25153  0.53564  0.95486  Biso   1.000  H 
  H403     1.0000 0.13916  0.47964  0.08567  Biso   1.000  H 
  H404     1.0000 0.25877  0.48166  0.01716  Biso   1.000  H 
  C315     1.0000 0.27758  0.17228  0.12526  Biso   1.000  C 
  H405     1.0000 0.26252  0.09400  0.05820  Biso   1.000  H 
  C316     1.0000 0.33134  0.15861  0.17584  Biso   1.000  C 
  H406     1.0000 0.23229  0.14930  0.14022  Biso   1.000  H 
  C317     1.0000 0.26903  0.24584  0.13008  Biso   1.000  C 
  H407     1.0000 0.23692  0.26647  0.09860  Biso   1.000  H 
  C318     1.0000 0.32856  0.28579  0.14304  Biso   1.000  C 
  H408     1.0000 0.24755  0.25125  0.17204  Biso   1.000  H 
  C319     1.0000 0.34330  0.27973  0.21500  Biso   1.000  C 
  H409     1.0000 0.31535  0.33691  0.13432  Biso   1.000  H 
  H410     1.0000 0.37099  0.27052  0.11174  Biso   1.000  H 
  C320     1.0000 0.34457  0.20735  0.23210  Biso   1.000  C 
  H411     1.0000 0.30275  0.30239  0.24046  Biso   1.000  H 
  H412     1.0000 0.38520  0.30605  0.22734  Biso   1.000  H 
  H413     1.0000 0.31336  0.20044  0.27167  Biso   1.000  H 
  H414     1.0000 0.39098  0.19505  0.25097  Biso   1.000  H 
  H415     1.0000 0.37789  0.15626  0.14924  Biso   1.000  H 
  H416     1.0000 0.31730  0.11264  0.19550  Biso   1.000  H 
  C321     1.0000 0.00000  0.84640  0.15360  Biso   1.000  C 
  O89      1.0000 0.00000  0.90471  0.17046  Biso   1.000  O 
  O90      1.0000 0.00000  0.82954  0.09529  Biso   1.000  O 
  C322     1.0000 0.00000  0.79500  0.20500  Biso   1.000  C 
  C323     1.0000 0.00000  0.73249  0.18437  Biso   1.000  C 
  N33      1.0000 0.06794  0.72692  0.14721  Biso   1.000  N 
  H417     1.0000 0.00000  0.63051  0.22128  Biso   1.000  H 
  C324     1.0000 0.00000  0.68442  0.23249  Biso   1.000  C 
  C325     1.0000 0.00000  0.70500  0.29500  Biso   1.000  C 
  C326     1.0000 0.00000  0.76751  0.31558  Biso   1.000  C 
  C327     1.0000 0.00000  0.81563  0.26751  Biso   1.000  C 
  H418     1.0000 0.00000  0.86954  0.27872  Biso   1.000  H 
  N34      1.0000 0.04740  0.77450  0.37080  Biso   1.000  N 
  O91      1.0000 0.00000  0.67046  0.40470  Biso   1.000  O 
  C328     1.0000 0.00000  0.65360  0.34640  Biso   1.000  C 
  O92      1.0000 0.00000  0.59529  0.32954  Biso   1.000  O 
  H419     1.0000 0.06736  0.74157  0.10114  Biso   1.000  H 
  C329     1.0000 0.12309  0.76910  0.17845  Biso   1.000  C 
  H420     1.0000 0.15388  0.73256  0.19522  Biso   1.000  H 
  C330     1.0000 0.12030  0.82210  0.23167  Biso   1.000  C 
  C331     1.0000 0.16280  0.79936  0.13039  Biso   1.000  C 
  C332     1.0000 0.21517  0.87234  0.20114  Biso   1.000  C 
  C333     1.0000 0.17961  0.85620  0.25912  Biso   1.000  C 
  H421     1.0000 0.10440  0.80420  0.27395  Biso   1.000  H 
  H422     1.0000 0.09411  0.86467  0.21583  Biso   1.000  H 
  H423     1.0000 0.15890  0.89490  0.28877  Biso   1.000  H 
  H424     1.0000 0.21864  0.83560  0.29059  Biso   1.000  H 
  C334     1.0000 0.22355  0.82210  0.15765  Biso   1.000  C 
  H425     1.0000 0.25509  0.83901  0.12368  Biso   1.000  H 
  H426     1.0000 0.24183  0.78642  0.18644  Biso   1.000  H 
  H427     1.0000 0.13266  0.83637  0.10818  Biso   1.000  H 
  H428     1.0000 0.18754  0.90049  0.16940  Biso   1.000  H 
  H429     1.0000 0.17092  0.75851  0.10335  Biso   1.000  H 
  H430     1.0000 0.26237  0.89048  0.21588  Biso   1.000  H 
  C335     1.0000 0.02254  0.78110  0.43066  Biso   1.000  C 
  H431     1.0000 0.07653  0.73486  0.37662  Biso   1.000  H 
  C336     1.0000 0.04966  0.84210  0.43830  Biso   1.000  C 
  H432     1.0000 0.04264  0.74865  0.46634  Biso   1.000  H 
  C337     1.0000 0.95311  0.77630  0.43729  Biso   1.000  C 
  H433     1.0000 0.92397  0.73589  0.41939  Biso   1.000  H 
  C338     1.0000 0.92389  0.82967  0.41078  Biso   1.000  C 
  H434     1.0000 0.95593  0.77419  0.49215  Biso   1.000  H 
  C339     1.0000 0.96449  0.88929  0.43296  Biso   1.000  C 
  H435     1.0000 0.87396  0.82665  0.41952  Biso   1.000  H 
  H436     1.0000 0.91993  0.81655  0.36137  Biso   1.000  H 
  C340     1.0000 0.01512  0.88448  0.47396  Biso   1.000  C 
  H437     1.0000 0.94922  0.92115  0.46155  Biso   1.000  H 
  H438     1.0000 0.98584  0.91061  0.39163  Biso   1.000  H 
  H439     1.0000 0.04181  0.92998  0.47687  Biso   1.000  H 
  H440     1.0000 0.00627  0.86451  0.52223  Biso   1.000  H 
  H441     1.0000 0.06907  0.86892  0.39370  Biso   1.000  H 
  H442     1.0000 0.08069  0.83590  0.46394  Biso   1.000  H 
  C341     1.0000 0.00000  0.34640  0.65360  Biso   1.000  C 
  O93      1.0000 0.00000  0.40471  0.67046  Biso   1.000  O 
  O94      1.0000 0.00000  0.32954  0.59529  Biso   1.000  O 
  C342     1.0000 0.00000  0.29500  0.70500  Biso   1.000  C 
  C343     1.0000 0.00000  0.23249  0.68437  Biso   1.000  C 
  N35      1.0000 0.06424  0.22691  0.63869  Biso   1.000  N 
  H443     1.0000 0.00000  0.13051  0.72128  Biso   1.000  H 
  C344     1.0000 0.00000  0.18442  0.73248  Biso   1.000  C 
  C345     1.0000 0.00000  0.20500  0.79499  Biso   1.000  C 
  C346     1.0000 0.00000  0.26751  0.81558  Biso   1.000  C 
  C347     1.0000 0.00000  0.31563  0.76751  Biso   1.000  C 
  H444     1.0000 0.00000  0.36954  0.77872  Biso   1.000  H 
  N36      1.0000 0.03796  0.28528  0.87599  Biso   1.000  N 
  O95      1.0000 0.00000  0.17046  0.90470  Biso   1.000  O 
  C348     1.0000 0.00000  0.15360  0.84639  Biso   1.000  C 
  O96      1.0000 0.00000  0.09529  0.82953  Biso   1.000  O 
  H445     1.0000 0.04965  0.23140  0.59177  Biso   1.000  H 
  C349     1.0000 0.12629  0.27951  0.63603  Biso   1.000  C 
  H446     1.0000 0.12968  0.28227  0.58720  Biso   1.000  H 
  C350     1.0000 0.12408  0.35274  0.65087  Biso   1.000  C 
  C351     1.0000 0.20593  0.27869  0.65408  Biso   1.000  C 
  C352     1.0000 0.16957  0.33148  0.75394  Biso   1.000  C 
  C353     1.0000 0.12611  0.37139  0.72203  Biso   1.000  C 
  H447     1.0000 0.09471  0.38036  0.62536  Biso   1.000  H 
  H448     1.0000 0.16850  0.37787  0.62995  Biso   1.000  H 
  H449     1.0000 0.15069  0.40958  0.72151  Biso   1.000  H 
  H450     1.0000 0.08724  0.38379  0.74927  Biso   1.000  H 
  C354     1.0000 0.23009  0.32025  0.71250  Biso   1.000  C 
  H451     1.0000 0.24929  0.36635  0.69240  Biso   1.000  H 
  H452     1.0000 0.27094  0.29639  0.73847  Biso   1.000  H 
  H453     1.0000 0.23827  0.24232  0.65298  Biso   1.000  H 
  H454     1.0000 0.13980  0.28613  0.75632  Biso   1.000  H 
  H455     1.0000 0.22699  0.30354  0.61364  Biso   1.000  H 
  H456     1.0000 0.18178  0.34809  0.80203  Biso   1.000  H 
  C355     1.0000 0.00622  0.29275  0.93663  Biso   1.000  C 
  H457     1.0000 0.07124  0.32184  0.86605  Biso   1.000  H 
  C356     1.0000 0.03595  0.34787  0.97840  Biso   1.000  C 
  H458     1.0000 0.01277  0.25090  0.96837  Biso   1.000  H 
  C357     1.0000 0.93915  0.29774  0.92380  Biso   1.000  C 
  H459     1.0000 0.92861  0.31567  0.87596  Biso   1.000  H 
  C358     1.0000 0.91838  0.35373  0.96251  Biso   1.000  C 
  H460     1.0000 0.91921  0.24752  0.92333  Biso   1.000  H 
  C359     1.0000 0.93701  0.35235  0.03567  Biso   1.000  C 
  H461     1.0000 0.86893  0.35795  0.95474  Biso   1.000  H 
  H462     1.0000 0.94321  0.38772  0.93871  Biso   1.000  H 
  C360     1.0000 0.99976  0.38640  0.03190  Biso   1.000  C 
  H463     1.0000 0.94930  0.30471  0.05170  Biso   1.000  H 
  H464     1.0000 0.89400  0.36729  0.06082  Biso   1.000  H 
  H465     1.0000 0.99390  0.43782  0.02058  Biso   1.000  H 
  H466     1.0000 0.02445  0.38495  0.07802  Biso   1.000  H 
  H467     1.0000 0.05097  0.38539  0.95016  Biso   1.000  H 
  H468     1.0000 0.05910  0.32319  0.01242  Biso   1.000  H 
  C361     1.0000 0.50000  0.84640  0.65360  Biso   1.000  C 
  O97      1.0000 0.50000  0.90471  0.67046  Biso   1.000  O 
  O98      1.0000 0.50000  0.82954  0.59529  Biso   1.000  O 
  C362     1.0000 0.50000  0.79500  0.70500  Biso   1.000  C 
  C363     1.0000 0.50000  0.73249  0.68437  Biso   1.000  C 
  N37      1.0000 0.57239  0.73225  0.64980  Biso   1.000  N 
  H469     1.0000 0.50000  0.63051  0.72128  Biso   1.000  H 
  C364     1.0000 0.50000  0.68442  0.73248  Biso   1.000  C 
  C365     1.0000 0.50000  0.70500  0.79499  Biso   1.000  C 
  C366     1.0000 0.50000  0.76751  0.81558  Biso   1.000  C 
  C367     1.0000 0.50000  0.81563  0.76751  Biso   1.000  C 
  H470     1.0000 0.50000  0.86954  0.77872  Biso   1.000  H 
  N38      1.0000 0.49999  0.78427  0.88159  Biso   1.000  N 
  O99      1.0000 0.50000  0.67046  0.90470  Biso   1.000  O 
  C368     1.0000 0.50000  0.65360  0.84639  Biso   1.000  C 
  O100     1.0000 0.50000  0.59529  0.82953  Biso   1.000  O 
  H471     1.0000 0.57176  0.75554  0.60493  Biso   1.000  H 
  C369     1.0000 0.62333  0.77495  0.68861  Biso   1.000  C 
  H472     1.0000 0.62406  0.75375  0.73528  Biso   1.000  H 
  C370     1.0000 0.62057  0.85154  0.71032  Biso   1.000  C 
  C371     1.0000 0.69255  0.78203  0.65865  Biso   1.000  C 
  C372     1.0000 0.73526  0.85280  0.75757  Biso   1.000  C 
  C373     1.0000 0.66389  0.85992  0.76985  Biso   1.000  C 
  H473     1.0000 0.58333  0.87610  0.73218  Biso   1.000  H 
  H474     1.0000 0.62877  0.88417  0.66853  Biso   1.000  H 
  H475     1.0000 0.65358  0.90074  0.79704  Biso   1.000  H 
  H476     1.0000 0.65148  0.82355  0.80576  Biso   1.000  H 
  C374     1.0000 0.74231  0.79369  0.71420  Biso   1.000  C 
  H477     1.0000 0.79336  0.78923  0.69975  Biso   1.000  H 
  H478     1.0000 0.73052  0.75284  0.74138  Biso   1.000  H 
  H479     1.0000 0.68454  0.82214  0.62483  Biso   1.000  H 
  H480     1.0000 0.75755  0.88982  0.72854  Biso   1.000  H 
  H481     1.0000 0.71826  0.74798  0.62909  Biso   1.000  H 
  H482     1.0000 0.76402  0.85269  0.80338  Biso   1.000  H 
  C375     1.0000 0.55094  0.77800  0.92567  Biso   1.000  C 
  H483     1.0000 0.54102  0.78310  0.85536  Biso   1.000  H 
  C376     1.0000 0.58649  0.84325  0.92326  Biso   1.000  C 
  H484     1.0000 0.58436  0.73658  0.91699  Biso   1.000  H 
  C377     1.0000 0.51723  0.76233  0.99165  Biso   1.000  C 
  H485     1.0000 0.49452  0.71948  0.99525  Biso   1.000  H 
  C378     1.0000 0.47208  0.81067  0.01219  Biso   1.000  C 
  H486     1.0000 0.54810  0.76171  0.02963  Biso   1.000  H 
  C379     1.0000 0.49668  0.87657  0.01146  Biso   1.000  C 
  H487     1.0000 0.44365  0.79818  0.05537  Biso   1.000  H 
  H488     1.0000 0.44619  0.80677  0.96912  Biso   1.000  H 
  C380     1.0000 0.55445  0.88303  0.97418  Biso   1.000  C 
  H489     1.0000 0.50208  0.89576  0.05854  Biso   1.000  H 
  H490     1.0000 0.46203  0.90650  0.99502  Biso   1.000  H 
  H491     1.0000 0.56451  0.93033  0.96635  Biso   1.000  H 
  H492     1.0000 0.57787  0.86217  0.01164  Biso   1.000  H 
  H493     1.0000 0.58504  0.86999  0.87993  Biso   1.000  H 
  H494     1.0000 0.63690  0.83214  0.92344  Biso   1.000  H 
  C381     1.0000 0.50000  0.34640  0.15360  Biso   1.000  C 
  O101     1.0000 0.50000  0.40471  0.17046  Biso   1.000  O 
  O102     1.0000 0.50000  0.32954  0.09529  Biso   1.000  O 
  C382     1.0000 0.50000  0.29500  0.20500  Biso   1.000  C 
  C383     1.0000 0.50000  0.23249  0.18437  Biso   1.000  C 
  N39      1.0000 0.55324  0.22597  0.13166  Biso   1.000  N 
  H495     1.0000 0.50000  0.13051  0.22128  Biso   1.000  H 
  C384     1.0000 0.50000  0.18442  0.23249  Biso   1.000  C 
  C385     1.0000 0.50000  0.20500  0.29500  Biso   1.000  C 
  C386     1.0000 0.50000  0.26751  0.31558  Biso   1.000  C 
  C387     1.0000 0.50000  0.31563  0.26751  Biso   1.000  C 
  H496     1.0000 0.50000  0.36954  0.27872  Biso   1.000  H 
  N40      1.0000 0.51007  0.28552  0.38505  Biso   1.000  N 
  O103     1.0000 0.50000  0.17046  0.40470  Biso   1.000  O 
  C388     1.0000 0.50000  0.15360  0.34640  Biso   1.000  C 
  O104     1.0000 0.50000  0.09529  0.32954  Biso   1.000  O 
  H497     1.0000 0.57172  0.17920  0.12949  Biso   1.000  H 
  C389     1.0000 0.60883  0.27638  0.13504  Biso   1.000  C 
  H498     1.0000 0.60726  0.29361  0.08960  Biso   1.000  H 
  C390     1.0000 0.61721  0.34241  0.17290  Biso   1.000  C 
  C391     1.0000 0.66916  0.24791  0.14881  Biso   1.000  C 
  C392     1.0000 0.72295  0.34230  0.21818  Biso   1.000  C 
  C393     1.0000 0.67597  0.37535  0.18359  Biso   1.000  C 
  H499     1.0000 0.60048  0.33595  0.22261  Biso   1.000  H 
  H500     1.0000 0.60067  0.38361  0.14484  Biso   1.000  H 
  H501     1.0000 0.69936  0.39639  0.14097  Biso   1.000  H 
  H502     1.0000 0.65970  0.40615  0.22090  Biso   1.000  H 
  C394     1.0000 0.72410  0.28453  0.17936  Biso   1.000  C 
  H503     1.0000 0.74681  0.30525  0.13578  Biso   1.000  H 
  H504     1.0000 0.74581  0.24986  0.20645  Biso   1.000  H 
  H505     1.0000 0.68419  0.24633  0.10376  Biso   1.000  H 
  H506     1.0000 0.71000  0.33421  0.26852  Biso   1.000  H 
  H507     1.0000 0.66528  0.19794  0.15780  Biso   1.000  H 
  H508     1.0000 0.76847  0.37250  0.21438  Biso   1.000  H 
  C395     1.0000 0.45544  0.27572  0.42737  Biso   1.000  C 
  H509     1.0000 0.55114  0.26664  0.40917  Biso   1.000  H 
  C396     1.0000 0.46360  0.31811  0.48546  Biso   1.000  C 
  H510     1.0000 0.46527  0.23927  0.45939  Biso   1.000  H 
  C397     1.0000 0.39150  0.25501  0.38934  Biso   1.000  C 
  H511     1.0000 0.39796  0.23961  0.33992  Biso   1.000  H 
  C398     1.0000 0.34925  0.31231  0.37455  Biso   1.000  C 
  H512     1.0000 0.36227  0.21548  0.40742  Biso   1.000  H 
  C399     1.0000 0.36401  0.36487  0.42232  Biso   1.000  C 
  H513     1.0000 0.29474  0.30371  0.37827  Biso   1.000  H 
  H514     1.0000 0.35667  0.32902  0.32506  Biso   1.000  H 
  C400     1.0000 0.41727  0.36832  0.47903  Biso   1.000  C 
  H515     1.0000 0.33671  0.40642  0.40983  Biso   1.000  H 
  H516     1.0000 0.40422  0.37425  0.39775  Biso   1.000  H 
  H517     1.0000 0.44817  0.40694  0.47236  Biso   1.000  H 
  H518     1.0000 0.39722  0.36736  0.52953  Biso   1.000  H 
  H519     1.0000 0.51270  0.33631  0.48782  Biso   1.000  H 
  H520     1.0000 0.45779  0.29462  0.53397  Biso   1.000  H 
  C401     1.0000 0.00000  0.84640  0.84640  Biso   1.000  C 
  O105     1.0000 0.00000  0.90471  0.82954  Biso   1.000  O 
  O106     1.0000 0.00000  0.82954  0.90471  Biso   1.000  O 
  C402     1.0000 0.00000  0.79500  0.79500  Biso   1.000  C 
  C403     1.0000 0.00000  0.73249  0.81563  Biso   1.000  C 
  N41      1.0000 0.04737  0.72073  0.87059  Biso   1.000  N 
  H521     1.0000 0.00000  0.63051  0.77872  Biso   1.000  H 
  C404     1.0000 0.00000  0.68442  0.76752  Biso   1.000  C 
  C405     1.0000 0.00000  0.70500  0.70501  Biso   1.000  C 
  C406     1.0000 0.00000  0.76751  0.68442  Biso   1.000  C 
  C407     1.0000 0.00000  0.81563  0.73249  Biso   1.000  C 
  H522     1.0000 0.00000  0.86954  0.72128  Biso   1.000  H 
  N42      1.0000 0.99889  0.78573  0.61805  Biso   1.000  N 
  O107     1.0000 0.00000  0.67046  0.59530  Biso   1.000  O 
  C408     1.0000 0.00000  0.65360  0.65361  Biso   1.000  C 
  O108     1.0000 0.00000  0.59529  0.67047  Biso   1.000  O 
  H523     1.0000 0.07902  0.75659  0.88601  Biso   1.000  H 
  C409     1.0000 0.02510  0.68183  0.91848  Biso   1.000  C 
  H524     1.0000 0.00430  0.65363  0.89217  Biso   1.000  H 
  C410     1.0000 0.96691  0.70462  0.94966  Biso   1.000  C 
  C411     1.0000 0.07506  0.63708  0.95429  Biso   1.000  C 
  C412     1.0000 0.00230  0.65715  0.04333  Biso   1.000  C 
  C413     1.0000 0.98905  0.72155  0.01349  Biso   1.000  C 
  H525     1.0000 0.92879  0.66534  0.94715  Biso   1.000  H 
  H526     1.0000 0.94339  0.74488  0.92675  Biso   1.000  H 
  H527     1.0000 0.02931  0.75199  0.01128  Biso   1.000  H 
  H528     1.0000 0.95124  0.74597  0.04216  Biso   1.000  H 
  C414     1.0000 0.06120  0.62217  0.02373  Biso   1.000  C 
  H529     1.0000 0.10113  0.63102  0.05742  Biso   1.000  H 
  H530     1.0000 0.04705  0.57054  0.02539  Biso   1.000  H 
  H531     1.0000 0.08251  0.59343  0.93257  Biso   1.000  H 
  H532     1.0000 0.95997  0.62965  0.03068  Biso   1.000  H 
  H533     1.0000 0.12174  0.65247  0.94652  Biso   1.000  H 
  H534     1.0000 0.00578  0.66314  0.09276  Biso   1.000  H 
  C415     1.0000 0.06595  0.79822  0.61427  Biso   1.000  C 
  H535     1.0000 0.96974  0.82588  0.61408  Biso   1.000  H 
  C416     1.0000 0.08837  0.85888  0.64584  Biso   1.000  C 
  H536     1.0000 0.06830  0.79746  0.56411  Biso   1.000  H 
  C417     1.0000 0.11074  0.74619  0.63567  Biso   1.000  C 
  H537     1.0000 0.10506  0.69628  0.61982  Biso   1.000  H 
  C418     1.0000 0.12968  0.75036  0.71040  Biso   1.000  C 
  H538     1.0000 0.14912  0.76301  0.60909  Biso   1.000  H 
  C419     1.0000 0.13895  0.81142  0.74963  Biso   1.000  C 
  H539     1.0000 0.17277  0.73131  0.71879  Biso   1.000  H 
  H540     1.0000 0.10136  0.72123  0.73629  Biso   1.000  H 
  C420     1.0000 0.12115  0.86877  0.71519  Biso   1.000  C 
  H541     1.0000 0.18800  0.81661  0.77035  Biso   1.000  H 
  H542     1.0000 0.11082  0.80612  0.79351  Biso   1.000  H 
  H543     1.0000 0.16741  0.89313  0.70782  Biso   1.000  H 
  H544     1.0000 0.09614  0.89625  0.75157  Biso   1.000  H 
  H545     1.0000 0.05395  0.89245  0.62937  Biso   1.000  H 
  H546     1.0000 0.13143  0.86679  0.62597  Biso   1.000  H 
  C421     1.0000 0.00000  0.34640  0.34640  Biso   1.000  C 
  O109     1.0000 0.00000  0.40471  0.32954  Biso   1.000  O 
  O110     1.0000 0.00000  0.32954  0.40471  Biso   1.000  O 
  C422     1.0000 0.00000  0.29500  0.29500  Biso   1.000  C 
  C423     1.0000 0.00000  0.23249  0.31563  Biso   1.000  C 
  N43      1.0000 0.03505  0.21807  0.37783  Biso   1.000  N 
  H547     1.0000 0.00000  0.13051  0.27872  Biso   1.000  H 
  C424     1.0000 0.00000  0.18442  0.26751  Biso   1.000  C 
  C425     1.0000 0.00000  0.20500  0.20500  Biso   1.000  C 
  C426     1.0000 0.00000  0.26751  0.18442  Biso   1.000  C 
  C427     1.0000 0.00000  0.31563  0.23249  Biso   1.000  C 
  H548     1.0000 0.00000  0.36954  0.22128  Biso   1.000  H 
  N44      1.0000 0.03929  0.28827  0.12434  Biso   1.000  N 
  O111     1.0000 0.00000  0.17046  0.09530  Biso   1.000  O 
  C428     1.0000 0.00000  0.15360  0.15360  Biso   1.000  C 
  O112     1.0000 0.00000  0.09529  0.17046  Biso   1.000  O 
  H549     1.0000 0.07341  0.24772  0.39273  Biso   1.000  H 
  C429     1.0000 0.01123  0.15781  0.40410  Biso   1.000  C 
  H550     1.0000 0.02860  0.12287  0.37548  Biso   1.000  H 
  C430     1.0000 0.93549  0.16228  0.39893  Biso   1.000  C 
  C431     1.0000 0.03180  0.13603  0.47159  Biso   1.000  C 
  C432     1.0000 0.96952  0.23252  0.48868  Biso   1.000  C 
  C433     1.0000 0.92347  0.22710  0.41870  Biso   1.000  C 
  H551     1.0000 0.90407  0.13086  0.42744  Biso   1.000  H 
  H552     1.0000 0.91840  0.15215  0.35048  Biso   1.000  H 
  H553     1.0000 0.92367  0.26759  0.38911  Biso   1.000  H 
  H554     1.0000 0.87050  0.22276  0.40853  Biso   1.000  H 
  C434     1.0000 0.98487  0.16399  0.51424  Biso   1.000  C 
  H555     1.0000 0.00573  0.15836  0.55999  Biso   1.000  H 
  H556     1.0000 0.93907  0.13768  0.51389  Biso   1.000  H 
  H557     1.0000 0.02995  0.08270  0.47846  Biso   1.000  H 
  H558     1.0000 0.95308  0.24890  0.53519  Biso   1.000  H 
  H559     1.0000 0.07843  0.14783  0.48552  Biso   1.000  H 
  H560     1.0000 0.01459  0.25746  0.48173  Biso   1.000  H 
  C435     1.0000 0.10819  0.30454  0.14499  Biso   1.000  C 
  H561     1.0000 0.04717  0.25775  0.08674  Biso   1.000  H 
  C436     1.0000 0.11364  0.37153  0.17349  Biso   1.000  C 
  H562     1.0000 0.13862  0.30072  0.10428  Biso   1.000  H 
  C437     1.0000 0.13619  0.25455  0.18749  Biso   1.000  C 
  H563     1.0000 0.10148  0.22754  0.20011  Biso   1.000  H 
  C438     1.0000 0.16219  0.27385  0.25467  Biso   1.000  C 
  H564     1.0000 0.15942  0.21907  0.15619  Biso   1.000  H 
  C439     1.0000 0.14831  0.33239  0.28882  Biso   1.000  C 
  H565     1.0000 0.21279  0.26778  0.25997  Biso   1.000  H 
  H566     1.0000 0.13666  0.24579  0.28850  Biso   1.000  H 
  C440     1.0000 0.14117  0.38039  0.24106  Biso   1.000  C 
  H567     1.0000 0.19109  0.34523  0.31985  Biso   1.000  H 
  H568     1.0000 0.10847  0.32968  0.32403  Biso   1.000  H 
  H569     1.0000 0.19311  0.39130  0.23365  Biso   1.000  H 
  H570     1.0000 0.11351  0.41607  0.26505  Biso   1.000  H 
  H571     1.0000 0.07183  0.39769  0.16448  Biso   1.000  H 
  H572     1.0000 0.14805  0.40158  0.14543  Biso   1.000  H 
  C441     1.0000 0.50000  0.84640  0.34640  Biso   1.000  C 
  O113     1.0000 0.50000  0.90471  0.32954  Biso   1.000  O 
  O114     1.0000 0.50000  0.82954  0.40471  Biso   1.000  O 
  C442     1.0000 0.50000  0.79500  0.29500  Biso   1.000  C 
  C443     1.0000 0.50000  0.73249  0.31563  Biso   1.000  C 
  N45      1.0000 0.53541  0.71966  0.37501  Biso   1.000  N 
  H573     1.0000 0.50000  0.63051  0.27872  Biso   1.000  H 
  C444     1.0000 0.50000  0.68442  0.26751  Biso   1.000  C 
  C445     1.0000 0.50000  0.70500  0.20500  Biso   1.000  C 
  C446     1.0000 0.50000  0.76751  0.18442  Biso   1.000  C 
  C447     1.0000 0.50000  0.81563  0.23249  Biso   1.000  C 
  H574     1.0000 0.50000  0.86954  0.22128  Biso   1.000  H 
  N46      1.0000 0.53477  0.78198  0.12808  Biso   1.000  N 
  O115     1.0000 0.50000  0.67046  0.09530  Biso   1.000  O 
  C448     1.0000 0.50000  0.65360  0.15360  Biso   1.000  C 
  O116     1.0000 0.50000  0.59529  0.17046  Biso   1.000  O 
  H575     1.0000 0.58142  0.74185  0.38684  Biso   1.000  H 
  C449     1.0000 0.51238  0.66165  0.39651  Biso   1.000  C 
  H576     1.0000 0.53537  0.63307  0.36736  Biso   1.000  H 
  C450     1.0000 0.44109  0.66729  0.39513  Biso   1.000  C 
  C451     1.0000 0.53614  0.64698  0.45695  Biso   1.000  C 
  C452     1.0000 0.47185  0.73631  0.48765  Biso   1.000  C 
  C453     1.0000 0.42536  0.72985  0.41864  Biso   1.000  C 
  H577     1.0000 0.42750  0.63226  0.42230  Biso   1.000  H 
  H578     1.0000 0.41532  0.66619  0.34871  Biso   1.000  H 
  H579     1.0000 0.42131  0.77087  0.38611  Biso   1.000  H 
  H580     1.0000 0.37478  0.71917  0.41281  Biso   1.000  H 
  C454     1.0000 0.49892  0.67821  0.50832  Biso   1.000  C 
  H581     1.0000 0.53014  0.69119  0.54622  Biso   1.000  H 
  H582     1.0000 0.46019  0.64540  0.52481  Biso   1.000  H 
  H583     1.0000 0.52979  0.59555  0.45984  Biso   1.000  H 
  H584     1.0000 0.45075  0.74829  0.53426  Biso   1.000  H 
  H585     1.0000 0.58634  0.66097  0.44890  Biso   1.000  H 
  H586     1.0000 0.51402  0.76557  0.48446  Biso   1.000  H 
  C455     1.0000 0.60196  0.77645  0.15040  Biso   1.000  C 
  H587     1.0000 0.52118  0.82737  0.11925  Biso   1.000  H 
  C456     1.0000 0.63354  0.83556  0.13353  Biso   1.000  C 
  H588     1.0000 0.61554  0.73307  0.12130  Biso   1.000  H 
  C457     1.0000 0.62336  0.76044  0.22227  Biso   1.000  C 
  H589     1.0000 0.60230  0.72096  0.24503  Biso   1.000  H 
  C458     1.0000 0.63963  0.81382  0.27395  Biso   1.000  C 
  H590     1.0000 0.66849  0.74136  0.21710  Biso   1.000  H 
  C459     1.0000 0.62612  0.87753  0.25271  Biso   1.000  C 
  H591     1.0000 0.69094  0.82064  0.27807  Biso   1.000  H 
  H592     1.0000 0.62057  0.80527  0.32162  Biso   1.000  H 
  C460     1.0000 0.65283  0.88257  0.18477  Biso   1.000  C 
  H593     1.0000 0.65448  0.90294  0.28779  Biso   1.000  H 
  H594     1.0000 0.58068  0.90167  0.25643  Biso   1.000  H 
  H595     1.0000 0.70576  0.88695  0.18946  Biso   1.000  H 
  H596     1.0000 0.63338  0.92611  0.17046  Biso   1.000  H 
  H597     1.0000 0.60883  0.85985  0.09914  Biso   1.000  H 
  H598     1.0000 0.67077  0.81203  0.11062  Biso   1.000  H 
  C461     1.0000 0.50000  0.34640  0.84640  Biso   1.000  C 
  O117     1.0000 0.50000  0.40471  0.82954  Biso   1.000  O 
  O118     1.0000 0.50000  0.32954  0.90471  Biso   1.000  O 
  C462     1.0000 0.50000  0.29500  0.79500  Biso   1.000  C 
  C463     1.0000 0.50000  0.23249  0.81563  Biso   1.000  C 
  N47      1.0000 0.53758  0.21629  0.87705  Biso   1.000  N 
  H599     1.0000 0.50000  0.13051  0.77872  Biso   1.000  H 
  C464     1.0000 0.50000  0.18442  0.76752  Biso   1.000  C 
  C465     1.0000 0.50000  0.20500  0.70501  Biso   1.000  C 
  C466     1.0000 0.50000  0.26751  0.68442  Biso   1.000  C 
  C467     1.0000 0.50000  0.31563  0.73249  Biso   1.000  C 
  H600     1.0000 0.50000  0.36954  0.72128  Biso   1.000  H 
  N48      1.0000 0.53872  0.28851  0.62444  Biso   1.000  N 
  O119     1.0000 0.50000  0.17046  0.59530  Biso   1.000  O 
  C468     1.0000 0.50000  0.15360  0.65361  Biso   1.000  C 
  O120     1.0000 0.50000  0.09529  0.67047  Biso   1.000  O 
  H601     1.0000 0.58666  0.22224  0.86715  Biso   1.000  H 
  C469     1.0000 0.51711  0.15116  0.89384  Biso   1.000  C 
  H602     1.0000 0.54819  0.11956  0.86719  Biso   1.000  H 
  C470     1.0000 0.44098  0.14879  0.88833  Biso   1.000  C 
  C471     1.0000 0.53030  0.13060  0.96308  Biso   1.000  C 
  C472     1.0000 0.47037  0.22528  0.98428  Biso   1.000  C 
  C473     1.0000 0.42366  0.21377  0.91690  Biso   1.000  C 
  H603     1.0000 0.41473  0.10891  0.91410  Biso   1.000  H 
  H604     1.0000 0.42176  0.14863  0.83950  Biso   1.000  H 
  H605     1.0000 0.41943  0.25817  0.89057  Biso   1.000  H 
  H606     1.0000 0.37550  0.19742  0.91360  Biso   1.000  H 
  C474     1.0000 0.48387  0.16081  0.00879  Biso   1.000  C 
  H607     1.0000 0.50539  0.16000  0.05583  Biso   1.000  H 
  H608     1.0000 0.43647  0.13632  0.00998  Biso   1.000  H 
  H609     1.0000 0.51891  0.07883  0.96575  Biso   1.000  H 
  H610     1.0000 0.45351  0.24652  0.03003  Biso   1.000  H 
  H611     1.0000 0.57838  0.14033  0.97678  Biso   1.000  H 
  H612     1.0000 0.51707  0.24949  0.97724  Biso   1.000  H 
  C475     1.0000 0.60427  0.30039  0.64858  Biso   1.000  C 
  H613     1.0000 0.54288  0.26040  0.58499  Biso   1.000  H 
  C476     1.0000 0.61726  0.37309  0.67185  Biso   1.000  C 
  H614     1.0000 0.63716  0.29348  0.60915  Biso   1.000  H 
  C477     1.0000 0.62935  0.24807  0.69482  Biso   1.000  C 
  H615     1.0000 0.60300  0.22867  0.73500  Biso   1.000  H 
  C478     1.0000 0.68507  0.28120  0.72833  Biso   1.000  C 
  H616     1.0000 0.63826  0.20496  0.66417  Biso   1.000  H 
  C479     1.0000 0.65639  0.32153  0.77836  Biso   1.000  C 
  H617     1.0000 0.70717  0.31105  0.69223  Biso   1.000  H 
  H618     1.0000 0.72483  0.26040  0.75142  Biso   1.000  H 
  C480     1.0000 0.63583  0.37725  0.74383  Biso   1.000  C 
  H619     1.0000 0.69190  0.33254  0.81400  Biso   1.000  H 
  H620     1.0000 0.61616  0.29996  0.80556  Biso   1.000  H 
  H621     1.0000 0.68464  0.39693  0.74279  Biso   1.000  H 
  H622     1.0000 0.60502  0.40516  0.77541  Biso   1.000  H 
  H623     1.0000 0.57628  0.40276  0.66333  Biso   1.000  H 
  H624     1.0000 0.65769  0.39367  0.64341  Biso   1.000  H 
