data_image0
_cell_length_a       26.896
_cell_length_b       26.896
_cell_length_c       26.896
_cell_angle_alpha    90
_cell_angle_beta     90
_cell_angle_gamma    90

_symmetry_space_group_name_H-M    "P 1"
_symmetry_int_tables_number       1

loop_
  _symmetry_equiv_pos_as_xyz
  'x, y, z'

loop_
  _atom_site_label
  _atom_site_occupancy
  _atom_site_fract_x
  _atom_site_fract_y
  _atom_site_fract_z
  _atom_site_thermal_displace_type
  _atom_site_B_iso_or_equiv
  _atom_site_type_symbol
  Zr1      1.0000 0.09204  0.00000  0.00000  Biso   1.000  Zr
  Zr2      1.0000 0.90796  0.00000  0.00000  Biso   1.000  Zr
  Zr3      1.0000 0.00000  0.09204  0.00000  Biso   1.000  Zr
  Zr4      1.0000 0.00000  0.90796  0.00000  Biso   1.000  Zr
  Zr5      1.0000 0.00000  0.00000  0.09204  Biso   1.000  Zr
  Zr6      1.0000 0.00000  0.00000  0.90796  Biso   1.000  Zr
  Zr7      1.0000 0.09204  0.50000  0.50000  Biso   1.000  Zr
  Zr8      1.0000 0.90796  0.50000  0.50000  Biso   1.000  Zr
  Zr9      1.0000 0.00000  0.59204  0.50000  Biso   1.000  Zr
  Zr10     1.0000 0.00000  0.40796  0.50000  Biso   1.000  Zr
  Zr11     1.0000 0.00000  0.50000  0.59204  Biso   1.000  Zr
  Zr12     1.0000 0.00000  0.50000  0.40796  Biso   1.000  Zr
  Zr13     1.0000 0.59204  0.00000  0.50000  Biso   1.000  Zr
  Zr14     1.0000 0.40796  0.00000  0.50000  Biso   1.000  Zr
  Zr15     1.0000 0.50000  0.09204  0.50000  Biso   1.000  Zr
  Zr16     1.0000 0.50000  0.90796  0.50000  Biso   1.000  Zr
  Zr17     1.0000 0.50000  0.00000  0.59204  Biso   1.000  Zr
  Zr18     1.0000 0.50000  0.00000  0.40796  Biso   1.000  Zr
  Zr19     1.0000 0.59204  0.50000  0.00000  Biso   1.000  Zr
  Zr20     1.0000 0.40796  0.50000  0.00000  Biso   1.000  Zr
  Zr21     1.0000 0.50000  0.59204  0.00000  Biso   1.000  Zr
  Zr22     1.0000 0.50000  0.40796  0.00000  Biso   1.000  Zr
  Zr23     1.0000 0.50000  0.50000  0.09204  Biso   1.000  Zr
  Zr24     1.0000 0.50000  0.50000  0.90796  Biso   1.000  Zr
  O1       1.0000 0.04540  0.04540  0.04540  Biso   1.000  O 
  O2       1.0000 0.95460  0.95460  0.04540  Biso   1.000  O 
  O3       1.0000 0.95460  0.04540  0.95460  Biso   1.000  O 
  O4       1.0000 0.04540  0.95460  0.95460  Biso   1.000  O 
  O5       1.0000 0.04540  0.04540  0.95460  Biso   1.000  O 
  O6       1.0000 0.95460  0.95460  0.95460  Biso   1.000  O 
  O7       1.0000 0.04540  0.95460  0.04540  Biso   1.000  O 
  O8       1.0000 0.95460  0.04540  0.04540  Biso   1.000  O 
  O9       1.0000 0.04540  0.54540  0.54540  Biso   1.000  O 
  O10      1.0000 0.95460  0.45460  0.54540  Biso   1.000  O 
  O11      1.0000 0.95460  0.54540  0.45460  Biso   1.000  O 
  O12      1.0000 0.04540  0.45460  0.45460  Biso   1.000  O 
  O13      1.0000 0.04540  0.54540  0.45460  Biso   1.000  O 
  O14      1.0000 0.95460  0.45460  0.45460  Biso   1.000  O 
  O15      1.0000 0.04540  0.45460  0.54540  Biso   1.000  O 
  O16      1.0000 0.95460  0.54540  0.54540  Biso   1.000  O 
  O17      1.0000 0.54540  0.04540  0.54540  Biso   1.000  O 
  O18      1.0000 0.45460  0.95460  0.54540  Biso   1.000  O 
  O19      1.0000 0.45460  0.04540  0.45460  Biso   1.000  O 
  O20      1.0000 0.54540  0.95460  0.45460  Biso   1.000  O 
  O21      1.0000 0.54540  0.04540  0.45460  Biso   1.000  O 
  O22      1.0000 0.45460  0.95460  0.45460  Biso   1.000  O 
  O23      1.0000 0.54540  0.95460  0.54540  Biso   1.000  O 
  O24      1.0000 0.45460  0.04540  0.54540  Biso   1.000  O 
  O25      1.0000 0.54540  0.54540  0.04540  Biso   1.000  O 
  O26      1.0000 0.45460  0.45460  0.04540  Biso   1.000  O 
  O27      1.0000 0.45460  0.54540  0.95460  Biso   1.000  O 
  O28      1.0000 0.54540  0.45460  0.95460  Biso   1.000  O 
  O29      1.0000 0.54540  0.54540  0.95460  Biso   1.000  O 
  O30      1.0000 0.45460  0.45460  0.95460  Biso   1.000  O 
  O31      1.0000 0.54540  0.45460  0.04540  Biso   1.000  O 
  O32      1.0000 0.45460  0.54540  0.04540  Biso   1.000  O 
  O33      1.0000 0.13260  0.00000  0.07190  Biso   1.000  O 
  C1       1.0000 0.11720  0.00000  0.11720  Biso   1.000  C 
  O34      1.0000 0.07190  0.00000  0.13260  Biso   1.000  O 
  C2       1.0000 0.15650  0.00000  0.15650  Biso   1.000  C 
  C3       1.0000 0.20580  0.00000  0.14470  Biso   1.000  C 
  C4       1.0000 0.14470  0.00000  0.20580  Biso   1.000  C 
  C5       1.0000 0.24200  0.00000  0.17950  Biso   1.000  C 
  F1       1.0000 0.22026  0.00210  0.09296  Biso   1.000  F 
  C6       1.0000 0.17950  0.00000  0.24200  Biso   1.000  C 
  F2       1.0000 0.09296  0.99748  0.22021  Biso   1.000  F 
  C7       1.0000 0.23070  0.00000  0.23070  Biso   1.000  C 
  C8       1.0000 0.26930  0.00000  0.26930  Biso   1.000  C 
  F3       1.0000 0.28831  0.01851  0.16175  Biso   1.000  F 
  C9       1.0000 0.32050  0.00000  0.25800  Biso   1.000  C 
  F4       1.0000 0.15921  0.98476  0.28908  Biso   1.000  F 
  C10      1.0000 0.25800  0.00000  0.32050  Biso   1.000  C 
  C11      1.0000 0.35530  0.00000  0.29420  Biso   1.000  C 
  F5       1.0000 0.33825  0.98148  0.21169  Biso   1.000  F 
  C12      1.0000 0.29420  0.00000  0.35530  Biso   1.000  C 
  F6       1.0000 0.21092  0.01524  0.34079  Biso   1.000  F 
  C13      1.0000 0.34350  0.00000  0.34350  Biso   1.000  C 
  C14      1.0000 0.38280  0.00000  0.38280  Biso   1.000  C 
  F7       1.0000 0.40703  0.99789  0.27974  Biso   1.000  F 
  F8       1.0000 0.27979  0.00251  0.40705  Biso   1.000  F 
  O35      1.0000 0.42810  0.00000  0.36740  Biso   1.000  O 
  O36      1.0000 0.36740  0.00000  0.42810  Biso   1.000  O 
  O37      1.0000 0.86740  0.00000  0.07190  Biso   1.000  O 
  C15      1.0000 0.88280  0.00000  0.11720  Biso   1.000  C 
  O38      1.0000 0.92810  0.00000  0.13260  Biso   1.000  O 
  C16      1.0000 0.84350  0.00000  0.15650  Biso   1.000  C 
  C17      1.0000 0.79420  0.00000  0.14470  Biso   1.000  C 
  C18      1.0000 0.85530  0.00000  0.20580  Biso   1.000  C 
  C19      1.0000 0.75800  0.00000  0.17950  Biso   1.000  C 
  F9       1.0000 0.77971  0.00371  0.09310  Biso   1.000  F 
  C20      1.0000 0.82050  0.00000  0.24200  Biso   1.000  C 
  F10      1.0000 0.90707  0.99778  0.22020  Biso   1.000  F 
  C21      1.0000 0.76930  0.00000  0.23070  Biso   1.000  C 
  C22      1.0000 0.73070  0.00000  0.26930  Biso   1.000  C 
  F11      1.0000 0.71281  0.02414  0.16310  Biso   1.000  F 
  C23      1.0000 0.67950  0.00000  0.25800  Biso   1.000  C 
  F12      1.0000 0.83987  0.98351  0.28935  Biso   1.000  F 
  C24      1.0000 0.74200  0.00000  0.32050  Biso   1.000  C 
  C25      1.0000 0.64470  0.00000  0.29420  Biso   1.000  C 
  F13      1.0000 0.66310  0.97586  0.21281  Biso   1.000  F 
  C26      1.0000 0.70580  0.00000  0.35530  Biso   1.000  C 
  F14      1.0000 0.78935  0.01649  0.33987  Biso   1.000  F 
  C27      1.0000 0.65650  0.00000  0.34350  Biso   1.000  C 
  C28      1.0000 0.61720  0.00000  0.38280  Biso   1.000  C 
  F15      1.0000 0.59310  0.99626  0.27971  Biso   1.000  F 
  F16      1.0000 0.72020  0.00222  0.40707  Biso   1.000  F 
  O39      1.0000 0.57190  0.00000  0.36740  Biso   1.000  O 
  O40      1.0000 0.63260  0.00000  0.42810  Biso   1.000  O 
  O41      1.0000 0.86740  0.00000  0.92810  Biso   1.000  O 
  C29      1.0000 0.88280  0.00000  0.88280  Biso   1.000  C 
  O42      1.0000 0.92810  0.00000  0.86740  Biso   1.000  O 
  C30      1.0000 0.84350  0.00000  0.84350  Biso   1.000  C 
  C31      1.0000 0.79420  0.00000  0.85530  Biso   1.000  C 
  C32      1.0000 0.85530  0.00000  0.79420  Biso   1.000  C 
  C33      1.0000 0.75800  0.00000  0.82050  Biso   1.000  C 
  F17      1.0000 0.77977  0.99635  0.90697  Biso   1.000  F 
  C34      1.0000 0.82050  0.00000  0.75800  Biso   1.000  C 
  F18      1.0000 0.90706  0.99752  0.77979  Biso   1.000  F 
  C35      1.0000 0.76930  0.00000  0.76930  Biso   1.000  C 
  C36      1.0000 0.73070  0.00000  0.73070  Biso   1.000  C 
  F19      1.0000 0.71169  0.97938  0.83813  Biso   1.000  F 
  C37      1.0000 0.67950  0.00000  0.74200  Biso   1.000  C 
  F20      1.0000 0.84073  0.98484  0.71073  Biso   1.000  F 
  C38      1.0000 0.74200  0.00000  0.67950  Biso   1.000  C 
  C39      1.0000 0.64470  0.00000  0.70580  Biso   1.000  C 
  F21      1.0000 0.66186  0.02062  0.78831  Biso   1.000  F 
  C40      1.0000 0.70580  0.00000  0.64470  Biso   1.000  C 
  F22      1.0000 0.78927  0.01516  0.65927  Biso   1.000  F 
  C41      1.0000 0.65650  0.00000  0.65650  Biso   1.000  C 
  C42      1.0000 0.61720  0.00000  0.61720  Biso   1.000  C 
  F23      1.0000 0.59303  0.00363  0.72023  Biso   1.000  F 
  F24      1.0000 0.72021  0.00249  0.59294  Biso   1.000  F 
  O43      1.0000 0.57190  0.00000  0.63260  Biso   1.000  O 
  O44      1.0000 0.63260  0.00000  0.57190  Biso   1.000  O 
  O45      1.0000 0.13260  0.00000  0.92810  Biso   1.000  O 
  C43      1.0000 0.11720  0.00000  0.88280  Biso   1.000  C 
  O46      1.0000 0.07190  0.00000  0.86740  Biso   1.000  O 
  C44      1.0000 0.15650  0.00000  0.84350  Biso   1.000  C 
  C45      1.0000 0.20580  0.00000  0.85530  Biso   1.000  C 
  C46      1.0000 0.14470  0.00000  0.79420  Biso   1.000  C 
  C47      1.0000 0.24200  0.00000  0.82050  Biso   1.000  C 
  F25      1.0000 0.22026  0.00375  0.90692  Biso   1.000  F 
  C48      1.0000 0.17950  0.00000  0.75800  Biso   1.000  C 
  F26      1.0000 0.09294  0.99789  0.77973  Biso   1.000  F 
  C49      1.0000 0.23070  0.00000  0.76930  Biso   1.000  C 
  C50      1.0000 0.26930  0.00000  0.73070  Biso   1.000  C 
  F27      1.0000 0.28780  0.02222  0.83768  Biso   1.000  F 
  C51      1.0000 0.32050  0.00000  0.74200  Biso   1.000  C 
  F28      1.0000 0.16110  0.98280  0.71166  Biso   1.000  F 
  C52      1.0000 0.25800  0.00000  0.67950  Biso   1.000  C 
  C53      1.0000 0.35530  0.00000  0.70580  Biso   1.000  C 
  F29      1.0000 0.33768  0.97778  0.78780  Biso   1.000  F 
  C54      1.0000 0.29420  0.00000  0.64470  Biso   1.000  C 
  F30      1.0000 0.21165  0.01720  0.66110  Biso   1.000  F 
  C55      1.0000 0.34350  0.00000  0.65650  Biso   1.000  C 
  C56      1.0000 0.38280  0.00000  0.61720  Biso   1.000  C 
  F31      1.0000 0.40692  0.99627  0.72026  Biso   1.000  F 
  F32      1.0000 0.27973  0.00211  0.59294  Biso   1.000  F 
  O47      1.0000 0.42810  0.00000  0.63260  Biso   1.000  O 
  O48      1.0000 0.36740  0.00000  0.57190  Biso   1.000  O 
  O49      1.0000 0.07190  0.13260  0.00000  Biso   1.000  O 
  C57      1.0000 0.11720  0.11720  0.00000  Biso   1.000  C 
  O50      1.0000 0.13260  0.07190  0.00000  Biso   1.000  O 
  C58      1.0000 0.15650  0.15650  0.00000  Biso   1.000  C 
  C59      1.0000 0.14470  0.20580  0.00000  Biso   1.000  C 
  C60      1.0000 0.20580  0.14470  0.00000  Biso   1.000  C 
  C61      1.0000 0.17950  0.24200  0.00000  Biso   1.000  C 
  F33      1.0000 0.09292  0.22021  0.00179  Biso   1.000  F 
  C62      1.0000 0.24200  0.17950  0.00000  Biso   1.000  C 
  F34      1.0000 0.22027  0.09296  0.00207  Biso   1.000  F 
  C63      1.0000 0.23070  0.23070  0.00000  Biso   1.000  C 
  C64      1.0000 0.26930  0.26930  0.00000  Biso   1.000  C 
  F35      1.0000 0.16147  0.28915  0.01832  Biso   1.000  F 
  C65      1.0000 0.25800  0.32050  0.00000  Biso   1.000  C 
  F36      1.0000 0.28823  0.16149  0.01788  Biso   1.000  F 
  C66      1.0000 0.32050  0.25800  0.00000  Biso   1.000  C 
  C67      1.0000 0.29420  0.35530  0.00000  Biso   1.000  C 
  F37      1.0000 0.21085  0.33853  0.98168  Biso   1.000  F 
  C68      1.0000 0.35530  0.29420  0.00000  Biso   1.000  C 
  F38      1.0000 0.33852  0.21177  0.98211  Biso   1.000  F 
  C69      1.0000 0.34350  0.34350  0.00000  Biso   1.000  C 
  C70      1.0000 0.38280  0.38280  0.00000  Biso   1.000  C 
  F39      1.0000 0.27979  0.40708  0.99822  Biso   1.000  F 
  F40      1.0000 0.40704  0.27973  0.99792  Biso   1.000  F 
  O51      1.0000 0.36740  0.42810  0.00000  Biso   1.000  O 
  O52      1.0000 0.42810  0.36740  0.00000  Biso   1.000  O 
  O53      1.0000 0.07190  0.86740  0.00000  Biso   1.000  O 
  C71      1.0000 0.11720  0.88280  0.00000  Biso   1.000  C 
  O54      1.0000 0.13260  0.92810  0.00000  Biso   1.000  O 
  C72      1.0000 0.15650  0.84350  0.00000  Biso   1.000  C 
  C73      1.0000 0.14470  0.79420  0.00000  Biso   1.000  C 
  C74      1.0000 0.20580  0.85530  0.00000  Biso   1.000  C 
  C75      1.0000 0.17950  0.75800  0.00000  Biso   1.000  C 
  F41      1.0000 0.09292  0.77979  0.00176  Biso   1.000  F 
  C76      1.0000 0.24200  0.82050  0.00000  Biso   1.000  C 
  F42      1.0000 0.22029  0.90689  0.00375  Biso   1.000  F 
  C77      1.0000 0.23070  0.76930  0.00000  Biso   1.000  C 
  C78      1.0000 0.26930  0.73070  0.00000  Biso   1.000  C 
  F43      1.0000 0.16156  0.71088  0.01849  Biso   1.000  F 
  C79      1.0000 0.25800  0.67950  0.00000  Biso   1.000  C 
  F44      1.0000 0.28718  0.83689  0.02416  Biso   1.000  F 
  C80      1.0000 0.32050  0.74200  0.00000  Biso   1.000  C 
  C81      1.0000 0.29420  0.64470  0.00000  Biso   1.000  C 
  F45      1.0000 0.21088  0.66156  0.98151  Biso   1.000  F 
  C82      1.0000 0.35530  0.70580  0.00000  Biso   1.000  C 
  F46      1.0000 0.33689  0.78718  0.97584  Biso   1.000  F 
  C83      1.0000 0.34350  0.65650  0.00000  Biso   1.000  C 
  C84      1.0000 0.38280  0.61720  0.00000  Biso   1.000  C 
  F47      1.0000 0.27979  0.59292  0.99823  Biso   1.000  F 
  F48      1.0000 0.40689  0.72029  0.99626  Biso   1.000  F 
  O55      1.0000 0.36740  0.57190  0.00000  Biso   1.000  O 
  O56      1.0000 0.42810  0.63260  0.00000  Biso   1.000  O 
  O57      1.0000 0.92810  0.86740  0.00000  Biso   1.000  O 
  C85      1.0000 0.88280  0.88280  0.00000  Biso   1.000  C 
  O58      1.0000 0.86740  0.92810  0.00000  Biso   1.000  O 
  C86      1.0000 0.84350  0.84350  0.00000  Biso   1.000  C 
  C87      1.0000 0.85530  0.79420  0.00000  Biso   1.000  C 
  C88      1.0000 0.79420  0.85530  0.00000  Biso   1.000  C 
  C89      1.0000 0.82050  0.75800  0.00000  Biso   1.000  C 
  F49      1.0000 0.90708  0.77979  0.00198  Biso   1.000  F 
  C90      1.0000 0.75800  0.82050  0.00000  Biso   1.000  C 
  F50      1.0000 0.77983  0.90703  0.00331  Biso   1.000  F 
  C91      1.0000 0.76930  0.76930  0.00000  Biso   1.000  C 
  C92      1.0000 0.73070  0.73070  0.00000  Biso   1.000  C 
  F51      1.0000 0.83912  0.71070  0.01741  Biso   1.000  F 
  C93      1.0000 0.74200  0.67950  0.00000  Biso   1.000  C 
  F52      1.0000 0.71108  0.83821  0.01939  Biso   1.000  F 
  C94      1.0000 0.67950  0.74200  0.00000  Biso   1.000  C 
  C95      1.0000 0.70580  0.64470  0.00000  Biso   1.000  C 
  F53      1.0000 0.78930  0.66088  0.98258  Biso   1.000  F 
  C96      1.0000 0.64470  0.70580  0.00000  Biso   1.000  C 
  F54      1.0000 0.66179  0.78892  0.98061  Biso   1.000  F 
  C97      1.0000 0.65650  0.65650  0.00000  Biso   1.000  C 
  C98      1.0000 0.61720  0.61720  0.00000  Biso   1.000  C 
  F55      1.0000 0.72021  0.59292  0.99803  Biso   1.000  F 
  F56      1.0000 0.59296  0.72017  0.99671  Biso   1.000  F 
  O59      1.0000 0.63260  0.57190  0.00000  Biso   1.000  O 
  O60      1.0000 0.57190  0.63260  0.00000  Biso   1.000  O 
  O61      1.0000 0.92810  0.13260  0.00000  Biso   1.000  O 
  C99      1.0000 0.88280  0.11720  0.00000  Biso   1.000  C 
  O62      1.0000 0.86740  0.07190  0.00000  Biso   1.000  O 
  C100     1.0000 0.84350  0.15650  0.00000  Biso   1.000  C 
  C101     1.0000 0.85530  0.20580  0.00000  Biso   1.000  C 
  C102     1.0000 0.79420  0.14470  0.00000  Biso   1.000  C 
  C103     1.0000 0.82050  0.24200  0.00000  Biso   1.000  C 
  F57      1.0000 0.90707  0.22020  0.00221  Biso   1.000  F 
  C104     1.0000 0.75800  0.17950  0.00000  Biso   1.000  C 
  F58      1.0000 0.77973  0.09294  0.00210  Biso   1.000  F 
  C105     1.0000 0.76930  0.23070  0.00000  Biso   1.000  C 
  C106     1.0000 0.73070  0.26930  0.00000  Biso   1.000  C 
  F59      1.0000 0.83981  0.28935  0.01656  Biso   1.000  F 
  C107     1.0000 0.74200  0.32050  0.00000  Biso   1.000  C 
  F60      1.0000 0.71157  0.16097  0.01701  Biso   1.000  F 
  C108     1.0000 0.67950  0.25800  0.00000  Biso   1.000  C 
  C109     1.0000 0.70580  0.35530  0.00000  Biso   1.000  C 
  F61      1.0000 0.78935  0.33981  0.98344  Biso   1.000  F 
  C110     1.0000 0.64470  0.29420  0.00000  Biso   1.000  C 
  F62      1.0000 0.66097  0.21157  0.98299  Biso   1.000  F 
  C111     1.0000 0.65650  0.34350  0.00000  Biso   1.000  C 
  C112     1.0000 0.61720  0.38280  0.00000  Biso   1.000  C 
  F63      1.0000 0.72020  0.40707  0.99778  Biso   1.000  F 
  F64      1.0000 0.59294  0.27973  0.99787  Biso   1.000  F 
  O63      1.0000 0.63260  0.42810  0.00000  Biso   1.000  O 
  O64      1.0000 0.57190  0.36740  0.00000  Biso   1.000  O 
  O65      1.0000 0.00000  0.07190  0.13260  Biso   1.000  O 
  C113     1.0000 0.00000  0.11720  0.11720  Biso   1.000  C 
  O66      1.0000 0.00000  0.13260  0.07190  Biso   1.000  O 
  C114     1.0000 0.00000  0.15650  0.15650  Biso   1.000  C 
  C115     1.0000 0.00000  0.14470  0.20580  Biso   1.000  C 
  C116     1.0000 0.00000  0.20580  0.14470  Biso   1.000  C 
  C117     1.0000 0.00000  0.17950  0.24200  Biso   1.000  C 
  F65      1.0000 0.99864  0.09298  0.22018  Biso   1.000  F 
  C118     1.0000 0.00000  0.24200  0.17950  Biso   1.000  C 
  F66      1.0000 0.99869  0.22021  0.09293  Biso   1.000  F 
  C119     1.0000 0.00000  0.23070  0.23070  Biso   1.000  C 
  C120     1.0000 0.00000  0.26930  0.26930  Biso   1.000  C 
  F67      1.0000 0.97688  0.16355  0.28791  Biso   1.000  F 
  C121     1.0000 0.00000  0.25800  0.32050  Biso   1.000  C 
  F68      1.0000 0.97483  0.28757  0.16460  Biso   1.000  F 
  C122     1.0000 0.00000  0.32050  0.25800  Biso   1.000  C 
  C123     1.0000 0.00000  0.29420  0.35530  Biso   1.000  C 
  F69      1.0000 0.02312  0.21209  0.33645  Biso   1.000  F 
  C124     1.0000 0.00000  0.35530  0.29420  Biso   1.000  C 
  F70      1.0000 0.02518  0.33540  0.21243  Biso   1.000  F 
  C125     1.0000 0.00000  0.34350  0.34350  Biso   1.000  C 
  C126     1.0000 0.00000  0.38280  0.38280  Biso   1.000  C 
  F71      1.0000 0.00136  0.27982  0.40702  Biso   1.000  F 
  F72      1.0000 0.00131  0.40707  0.27980  Biso   1.000  F 
  O67      1.0000 0.00000  0.36740  0.42810  Biso   1.000  O 
  O68      1.0000 0.00000  0.42810  0.36740  Biso   1.000  O 
  O69      1.0000 0.00000  0.07190  0.86740  Biso   1.000  O 
  C127     1.0000 0.00000  0.11720  0.88280  Biso   1.000  C 
  O70      1.0000 0.00000  0.13260  0.92810  Biso   1.000  O 
  C128     1.0000 0.00000  0.15650  0.84350  Biso   1.000  C 
  C129     1.0000 0.00000  0.14470  0.79420  Biso   1.000  C 
  C130     1.0000 0.00000  0.20580  0.85530  Biso   1.000  C 
  C131     1.0000 0.00000  0.17950  0.75800  Biso   1.000  C 
  F73      1.0000 0.99861  0.09297  0.77981  Biso   1.000  F 
  C132     1.0000 0.00000  0.24200  0.82050  Biso   1.000  C 
  F74      1.0000 0.99868  0.22021  0.90706  Biso   1.000  F 
  C133     1.0000 0.00000  0.23070  0.76930  Biso   1.000  C 
  C134     1.0000 0.00000  0.26930  0.73070  Biso   1.000  C 
  F75      1.0000 0.97748  0.16332  0.71183  Biso   1.000  F 
  C135     1.0000 0.00000  0.25800  0.67950  Biso   1.000  C 
  F76      1.0000 0.97480  0.28757  0.83539  Biso   1.000  F 
  C136     1.0000 0.00000  0.32050  0.74200  Biso   1.000  C 
  C137     1.0000 0.00000  0.29420  0.64470  Biso   1.000  C 
  F77      1.0000 0.02252  0.21183  0.66331  Biso   1.000  F 
  C138     1.0000 0.00000  0.35530  0.70580  Biso   1.000  C 
  F78      1.0000 0.02520  0.33539  0.78757  Biso   1.000  F 
  C139     1.0000 0.00000  0.34350  0.65650  Biso   1.000  C 
  C140     1.0000 0.00000  0.38280  0.61720  Biso   1.000  C 
  F79      1.0000 0.00138  0.27981  0.59297  Biso   1.000  F 
  F80      1.0000 0.00132  0.40707  0.72020  Biso   1.000  F 
  O71      1.0000 0.00000  0.36740  0.57190  Biso   1.000  O 
  O72      1.0000 0.00000  0.42810  0.63260  Biso   1.000  O 
  O73      1.0000 0.00000  0.92810  0.86740  Biso   1.000  O 
  C141     1.0000 0.00000  0.88280  0.88280  Biso   1.000  C 
  O74      1.0000 0.00000  0.86740  0.92810  Biso   1.000  O 
  C142     1.0000 0.00000  0.84350  0.84350  Biso   1.000  C 
  C143     1.0000 0.00000  0.85530  0.79420  Biso   1.000  C 
  C144     1.0000 0.00000  0.79420  0.85530  Biso   1.000  C 
  C145     1.0000 0.00000  0.82050  0.75800  Biso   1.000  C 
  F81      1.0000 0.99858  0.90704  0.77980  Biso   1.000  F 
  C146     1.0000 0.00000  0.75800  0.82050  Biso   1.000  C 
  F82      1.0000 0.99868  0.77979  0.90706  Biso   1.000  F 
  C147     1.0000 0.00000  0.76930  0.76930  Biso   1.000  C 
  C148     1.0000 0.00000  0.73070  0.73070  Biso   1.000  C 
  F83      1.0000 0.97810  0.83692  0.71162  Biso   1.000  F 
  C149     1.0000 0.00000  0.74200  0.67950  Biso   1.000  C 
  F84      1.0000 0.97474  0.71243  0.83536  Biso   1.000  F 
  C150     1.0000 0.00000  0.67950  0.74200  Biso   1.000  C 
  C151     1.0000 0.00000  0.70580  0.64470  Biso   1.000  C 
  F85      1.0000 0.02190  0.78838  0.66308  Biso   1.000  F 
  C152     1.0000 0.00000  0.64470  0.70580  Biso   1.000  C 
  F86      1.0000 0.02526  0.66464  0.78757  Biso   1.000  F 
  C153     1.0000 0.00000  0.65650  0.65650  Biso   1.000  C 
  C154     1.0000 0.00000  0.61720  0.61720  Biso   1.000  C 
  F87      1.0000 0.00143  0.72020  0.59296  Biso   1.000  F 
  F88      1.0000 0.00131  0.59293  0.72021  Biso   1.000  F 
  O75      1.0000 0.00000  0.63260  0.57190  Biso   1.000  O 
  O76      1.0000 0.00000  0.57190  0.63260  Biso   1.000  O 
  O77      1.0000 0.00000  0.92810  0.13260  Biso   1.000  O 
  C155     1.0000 0.00000  0.88280  0.11720  Biso   1.000  C 
  O78      1.0000 0.00000  0.86740  0.07190  Biso   1.000  O 
  C156     1.0000 0.00000  0.84350  0.15650  Biso   1.000  C 
  C157     1.0000 0.00000  0.85530  0.20580  Biso   1.000  C 
  C158     1.0000 0.00000  0.79420  0.14470  Biso   1.000  C 
  C159     1.0000 0.00000  0.82050  0.24200  Biso   1.000  C 
  F89      1.0000 0.99864  0.90702  0.22019  Biso   1.000  F 
  C160     1.0000 0.00000  0.75800  0.17950  Biso   1.000  C 
  F90      1.0000 0.99869  0.77979  0.09293  Biso   1.000  F 
  C161     1.0000 0.00000  0.76930  0.23070  Biso   1.000  C 
  C162     1.0000 0.00000  0.73070  0.26930  Biso   1.000  C 
  F91      1.0000 0.97712  0.83654  0.28802  Biso   1.000  F 
  C163     1.0000 0.00000  0.74200  0.32050  Biso   1.000  C 
  F92      1.0000 0.97479  0.71243  0.16462  Biso   1.000  F 
  C164     1.0000 0.00000  0.67950  0.25800  Biso   1.000  C 
  C165     1.0000 0.00000  0.70580  0.35530  Biso   1.000  C 
  F93      1.0000 0.02289  0.78802  0.33654  Biso   1.000  F 
  C166     1.0000 0.00000  0.64470  0.29420  Biso   1.000  C 
  F94      1.0000 0.02521  0.66462  0.21243  Biso   1.000  F 
  C167     1.0000 0.00000  0.65650  0.34350  Biso   1.000  C 
  C168     1.0000 0.00000  0.61720  0.38280  Biso   1.000  C 
  F95      1.0000 0.00136  0.72019  0.40702  Biso   1.000  F 
  F96      1.0000 0.00131  0.59293  0.27979  Biso   1.000  F 
  O79      1.0000 0.00000  0.63260  0.42810  Biso   1.000  O 
  O80      1.0000 0.00000  0.57190  0.36740  Biso   1.000  O 
  O81      1.0000 0.13260  0.50000  0.57190  Biso   1.000  O 
  C169     1.0000 0.11720  0.50000  0.61720  Biso   1.000  C 
  O82      1.0000 0.07190  0.50000  0.63260  Biso   1.000  O 
  C170     1.0000 0.15650  0.50000  0.65650  Biso   1.000  C 
  C171     1.0000 0.20580  0.50000  0.64470  Biso   1.000  C 
  C172     1.0000 0.14470  0.50000  0.70580  Biso   1.000  C 
  C173     1.0000 0.24200  0.50000  0.67950  Biso   1.000  C 
  F97      1.0000 0.22032  0.50084  0.59296  Biso   1.000  F 
  C174     1.0000 0.17950  0.50000  0.74200  Biso   1.000  C 
  F98      1.0000 0.09310  0.50501  0.72013  Biso   1.000  F 
  C175     1.0000 0.23070  0.50000  0.73070  Biso   1.000  C 
  C176     1.0000 0.26930  0.50000  0.76930  Biso   1.000  C 
  F99      1.0000 0.28908  0.51936  0.66091  Biso   1.000  F 
  C177     1.0000 0.32050  0.50000  0.75800  Biso   1.000  C 
  F100     1.0000 0.15875  0.51359  0.78881  Biso   1.000  F 
  C178     1.0000 0.25800  0.50000  0.82050  Biso   1.000  C 
  C179     1.0000 0.35530  0.50000  0.79420  Biso   1.000  C 
  F101     1.0000 0.33909  0.48064  0.71092  Biso   1.000  F 
  C180     1.0000 0.29420  0.50000  0.85530  Biso   1.000  C 
  F102     1.0000 0.21119  0.48641  0.84125  Biso   1.000  F 
  C181     1.0000 0.34350  0.50000  0.84350  Biso   1.000  C 
  C182     1.0000 0.38280  0.50000  0.88280  Biso   1.000  C 
  F103     1.0000 0.40704  0.49916  0.77968  Biso   1.000  F 
  F104     1.0000 0.27987  0.49499  0.90690  Biso   1.000  F 
  O83      1.0000 0.42810  0.50000  0.86740  Biso   1.000  O 
  O84      1.0000 0.36740  0.50000  0.92810  Biso   1.000  O 
  O85      1.0000 0.86740  0.50000  0.57190  Biso   1.000  O 
  C183     1.0000 0.88280  0.50000  0.61720  Biso   1.000  C 
  O86      1.0000 0.92810  0.50000  0.63260  Biso   1.000  O 
  C184     1.0000 0.84350  0.50000  0.65650  Biso   1.000  C 
  C185     1.0000 0.79420  0.50000  0.64470  Biso   1.000  C 
  C186     1.0000 0.85530  0.50000  0.70580  Biso   1.000  C 
  C187     1.0000 0.75800  0.50000  0.67950  Biso   1.000  C 
  F105     1.0000 0.77958  0.49791  0.59304  Biso   1.000  F 
  C188     1.0000 0.82050  0.50000  0.74200  Biso   1.000  C 
  F106     1.0000 0.90699  0.49673  0.72018  Biso   1.000  F 
  C189     1.0000 0.76930  0.50000  0.73070  Biso   1.000  C 
  C190     1.0000 0.73070  0.50000  0.76930  Biso   1.000  C 
  F107     1.0000 0.71367  0.47145  0.66642  Biso   1.000  F 
  C191     1.0000 0.67950  0.50000  0.75800  Biso   1.000  C 
  F108     1.0000 0.83909  0.48253  0.78839  Biso   1.000  F 
  C192     1.0000 0.74200  0.50000  0.82050  Biso   1.000  C 
  C193     1.0000 0.64470  0.50000  0.79420  Biso   1.000  C 
  F109     1.0000 0.66642  0.52855  0.71367  Biso   1.000  F 
  C194     1.0000 0.70580  0.50000  0.85530  Biso   1.000  C 
  F110     1.0000 0.78839  0.51747  0.83909  Biso   1.000  F 
  C195     1.0000 0.65650  0.50000  0.84350  Biso   1.000  C 
  C196     1.0000 0.61720  0.50000  0.88280  Biso   1.000  C 
  F111     1.0000 0.59304  0.50209  0.77958  Biso   1.000  F 
  F112     1.0000 0.72018  0.50326  0.90699  Biso   1.000  F 
  O87      1.0000 0.57190  0.50000  0.86740  Biso   1.000  O 
  O88      1.0000 0.63260  0.50000  0.92810  Biso   1.000  O 
  O89      1.0000 0.86740  0.50000  0.42810  Biso   1.000  O 
  C197     1.0000 0.88280  0.50000  0.38280  Biso   1.000  C 
  O90      1.0000 0.92810  0.50000  0.36740  Biso   1.000  O 
  C198     1.0000 0.84350  0.50000  0.34350  Biso   1.000  C 
  C199     1.0000 0.79420  0.50000  0.35530  Biso   1.000  C 
  C200     1.0000 0.85530  0.50000  0.29420  Biso   1.000  C 
  C201     1.0000 0.75800  0.50000  0.32050  Biso   1.000  C 
  F113     1.0000 0.77964  0.50111  0.40701  Biso   1.000  F 
  C202     1.0000 0.82050  0.50000  0.25800  Biso   1.000  C 
  F114     1.0000 0.90695  0.50457  0.27994  Biso   1.000  F 
  C203     1.0000 0.76930  0.50000  0.26930  Biso   1.000  C 
  C204     1.0000 0.73070  0.50000  0.23070  Biso   1.000  C 
  F115     1.0000 0.71156  0.52290  0.33730  Biso   1.000  F 
  C205     1.0000 0.67950  0.50000  0.24200  Biso   1.000  C 
  F116     1.0000 0.84088  0.51343  0.21052  Biso   1.000  F 
  C206     1.0000 0.74200  0.50000  0.17950  Biso   1.000  C 
  C207     1.0000 0.64470  0.50000  0.20580  Biso   1.000  C 
  F117     1.0000 0.66270  0.47710  0.28844  Biso   1.000  F 
  C208     1.0000 0.70580  0.50000  0.14470  Biso   1.000  C 
  F118     1.0000 0.78948  0.48657  0.15912  Biso   1.000  F 
  C209     1.0000 0.65650  0.50000  0.15650  Biso   1.000  C 
  C210     1.0000 0.61720  0.50000  0.11720  Biso   1.000  C 
  F119     1.0000 0.59298  0.49889  0.22036  Biso   1.000  F 
  F120     1.0000 0.72006  0.49543  0.09305  Biso   1.000  F 
  O91      1.0000 0.57190  0.50000  0.13260  Biso   1.000  O 
  O92      1.0000 0.63260  0.50000  0.07190  Biso   1.000  O 
  O93      1.0000 0.13260  0.50000  0.42810  Biso   1.000  O 
  C211     1.0000 0.11720  0.50000  0.38280  Biso   1.000  C 
  O94      1.0000 0.07190  0.50000  0.36740  Biso   1.000  O 
  C212     1.0000 0.15650  0.50000  0.34350  Biso   1.000  C 
  C213     1.0000 0.20580  0.50000  0.35530  Biso   1.000  C 
  C214     1.0000 0.14470  0.50000  0.29420  Biso   1.000  C 
  C215     1.0000 0.24200  0.50000  0.32050  Biso   1.000  C 
  F121     1.0000 0.22022  0.50016  0.40711  Biso   1.000  F 
  C216     1.0000 0.17950  0.50000  0.25800  Biso   1.000  C 
  F122     1.0000 0.09311  0.50505  0.27986  Biso   1.000  F 
  C217     1.0000 0.23070  0.50000  0.26930  Biso   1.000  C 
  C218     1.0000 0.26930  0.50000  0.23070  Biso   1.000  C 
  F123     1.0000 0.28990  0.50454  0.34303  Biso   1.000  F 
  C219     1.0000 0.32050  0.50000  0.24200  Biso   1.000  C 
  F124     1.0000 0.15879  0.51368  0.21130  Biso   1.000  F 
  C220     1.0000 0.25800  0.50000  0.17950  Biso   1.000  C 
  C221     1.0000 0.35530  0.50000  0.20580  Biso   1.000  C 
  F125     1.0000 0.34304  0.49546  0.28990  Biso   1.000  F 
  C222     1.0000 0.29420  0.50000  0.14470  Biso   1.000  C 
  F126     1.0000 0.21130  0.48632  0.15879  Biso   1.000  F 
  C223     1.0000 0.34350  0.50000  0.15650  Biso   1.000  C 
  C224     1.0000 0.38280  0.50000  0.11720  Biso   1.000  C 
  F127     1.0000 0.40711  0.49984  0.22022  Biso   1.000  F 
  F128     1.0000 0.27987  0.49495  0.09311  Biso   1.000  F 
  O95      1.0000 0.42810  0.50000  0.13260  Biso   1.000  O 
  O96      1.0000 0.36740  0.50000  0.07190  Biso   1.000  O 
  O97      1.0000 0.07190  0.63260  0.50000  Biso   1.000  O 
  C225     1.0000 0.11720  0.61720  0.50000  Biso   1.000  C 
  O98      1.0000 0.13260  0.57190  0.50000  Biso   1.000  O 
  C226     1.0000 0.15650  0.65650  0.50000  Biso   1.000  C 
  C227     1.0000 0.14470  0.70580  0.50000  Biso   1.000  C 
  C228     1.0000 0.20580  0.64470  0.50000  Biso   1.000  C 
  C229     1.0000 0.17950  0.74200  0.50000  Biso   1.000  C 
  F129     1.0000 0.09297  0.72032  0.49872  Biso   1.000  F 
  C230     1.0000 0.24200  0.67950  0.50000  Biso   1.000  C 
  F130     1.0000 0.22023  0.59308  0.49592  Biso   1.000  F 
  C231     1.0000 0.23070  0.73070  0.50000  Biso   1.000  C 
  C232     1.0000 0.26930  0.76930  0.50000  Biso   1.000  C 
  F131     1.0000 0.16404  0.78837  0.47549  Biso   1.000  F 
  C233     1.0000 0.25800  0.82050  0.50000  Biso   1.000  C 
  F132     1.0000 0.28796  0.66334  0.47543  Biso   1.000  F 
  C234     1.0000 0.32050  0.75800  0.50000  Biso   1.000  C 
  C235     1.0000 0.29420  0.85530  0.50000  Biso   1.000  C 
  F133     1.0000 0.21163  0.83596  0.52452  Biso   1.000  F 
  C236     1.0000 0.35530  0.79420  0.50000  Biso   1.000  C 
  F134     1.0000 0.33666  0.71204  0.52457  Biso   1.000  F 
  C237     1.0000 0.34350  0.84350  0.50000  Biso   1.000  C 
  C238     1.0000 0.38280  0.88280  0.50000  Biso   1.000  C 
  F135     1.0000 0.27968  0.90703  0.50130  Biso   1.000  F 
  F136     1.0000 0.40692  0.77977  0.50408  Biso   1.000  F 
  O99      1.0000 0.36740  0.92810  0.50000  Biso   1.000  O 
  O100     1.0000 0.42810  0.86740  0.50000  Biso   1.000  O 
  O101     1.0000 0.07190  0.36740  0.50000  Biso   1.000  O 
  C239     1.0000 0.11720  0.38280  0.50000  Biso   1.000  C 
  O102     1.0000 0.13260  0.42810  0.50000  Biso   1.000  O 
  C240     1.0000 0.15650  0.34350  0.50000  Biso   1.000  C 
  C241     1.0000 0.14470  0.29420  0.50000  Biso   1.000  C 
  C242     1.0000 0.20580  0.35530  0.50000  Biso   1.000  C 
  C243     1.0000 0.17950  0.25800  0.50000  Biso   1.000  C 
  F137     1.0000 0.09304  0.27994  0.50426  Biso   1.000  F 
  C244     1.0000 0.24200  0.32050  0.50000  Biso   1.000  C 
  F138     1.0000 0.22036  0.40702  0.50109  Biso   1.000  F 
  C245     1.0000 0.23070  0.26930  0.50000  Biso   1.000  C 
  C246     1.0000 0.26930  0.23070  0.50000  Biso   1.000  C 
  F139     1.0000 0.15950  0.21077  0.51395  Biso   1.000  F 
  C247     1.0000 0.25800  0.17950  0.50000  Biso   1.000  C 
  F140     1.0000 0.28849  0.33742  0.52268  Biso   1.000  F 
  C248     1.0000 0.32050  0.24200  0.50000  Biso   1.000  C 
  C249     1.0000 0.29420  0.14470  0.50000  Biso   1.000  C 
  F141     1.0000 0.21077  0.15950  0.48605  Biso   1.000  F 
  C250     1.0000 0.35530  0.20580  0.50000  Biso   1.000  C 
  F142     1.0000 0.33743  0.28849  0.47732  Biso   1.000  F 
  C251     1.0000 0.34350  0.15650  0.50000  Biso   1.000  C 
  C252     1.0000 0.38280  0.11720  0.50000  Biso   1.000  C 
  F143     1.0000 0.27994  0.09304  0.49573  Biso   1.000  F 
  F144     1.0000 0.40702  0.22036  0.49891  Biso   1.000  F 
  O103     1.0000 0.36740  0.07190  0.50000  Biso   1.000  O 
  O104     1.0000 0.42810  0.13260  0.50000  Biso   1.000  O 
  O105     1.0000 0.92810  0.36740  0.50000  Biso   1.000  O 
  C253     1.0000 0.88280  0.38280  0.50000  Biso   1.000  C 
  O106     1.0000 0.86740  0.42810  0.50000  Biso   1.000  O 
  C254     1.0000 0.84350  0.34350  0.50000  Biso   1.000  C 
  C255     1.0000 0.85530  0.29420  0.50000  Biso   1.000  C 
  C256     1.0000 0.79420  0.35530  0.50000  Biso   1.000  C 
  C257     1.0000 0.82050  0.25800  0.50000  Biso   1.000  C 
  F145     1.0000 0.90703  0.27968  0.50148  Biso   1.000  F 
  C258     1.0000 0.75800  0.32050  0.50000  Biso   1.000  C 
  F146     1.0000 0.77974  0.40693  0.50383  Biso   1.000  F 
  C259     1.0000 0.76930  0.26930  0.50000  Biso   1.000  C 
  C260     1.0000 0.73070  0.23070  0.50000  Biso   1.000  C 
  F147     1.0000 0.83617  0.21138  0.52418  Biso   1.000  F 
  C261     1.0000 0.74200  0.17950  0.50000  Biso   1.000  C 
  F148     1.0000 0.71260  0.33603  0.52596  Biso   1.000  F 
  C262     1.0000 0.67950  0.24200  0.50000  Biso   1.000  C 
  C263     1.0000 0.70580  0.14470  0.50000  Biso   1.000  C 
  F149     1.0000 0.78862  0.16383  0.47582  Biso   1.000  F 
  C264     1.0000 0.64470  0.20580  0.50000  Biso   1.000  C 
  F150     1.0000 0.66397  0.28740  0.47404  Biso   1.000  F 
  C265     1.0000 0.65650  0.15650  0.50000  Biso   1.000  C 
  C266     1.0000 0.61720  0.11720  0.50000  Biso   1.000  C 
  F151     1.0000 0.72033  0.09297  0.49853  Biso   1.000  F 
  F152     1.0000 0.59307  0.22026  0.49618  Biso   1.000  F 
  O107     1.0000 0.63260  0.07190  0.50000  Biso   1.000  O 
  O108     1.0000 0.57190  0.13260  0.50000  Biso   1.000  O 
  O109     1.0000 0.92810  0.63260  0.50000  Biso   1.000  O 
  C267     1.0000 0.88280  0.61720  0.50000  Biso   1.000  C 
  O110     1.0000 0.86740  0.57190  0.50000  Biso   1.000  O 
  C268     1.0000 0.84350  0.65650  0.50000  Biso   1.000  C 
  C269     1.0000 0.85530  0.70580  0.50000  Biso   1.000  C 
  C270     1.0000 0.79420  0.64470  0.50000  Biso   1.000  C 
  C271     1.0000 0.82050  0.74200  0.50000  Biso   1.000  C 
  F153     1.0000 0.90689  0.72013  0.49497  Biso   1.000  F 
  C272     1.0000 0.75800  0.67950  0.50000  Biso   1.000  C 
  F154     1.0000 0.77965  0.59298  0.49901  Biso   1.000  F 
  C273     1.0000 0.76930  0.73070  0.50000  Biso   1.000  C 
  C274     1.0000 0.73070  0.76930  0.50000  Biso   1.000  C 
  F155     1.0000 0.84123  0.78876  0.48637  Biso   1.000  F 
  C275     1.0000 0.74200  0.82050  0.50000  Biso   1.000  C 
  F156     1.0000 0.71127  0.66195  0.47848  Biso   1.000  F 
  C276     1.0000 0.67950  0.75800  0.50000  Biso   1.000  C 
  C277     1.0000 0.70580  0.85530  0.50000  Biso   1.000  C 
  F157     1.0000 0.78876  0.84123  0.51363  Biso   1.000  F 
  C278     1.0000 0.64470  0.79420  0.50000  Biso   1.000  C 
  F158     1.0000 0.66195  0.71127  0.52152  Biso   1.000  F 
  C279     1.0000 0.65650  0.84350  0.50000  Biso   1.000  C 
  C280     1.0000 0.61720  0.88280  0.50000  Biso   1.000  C 
  F159     1.0000 0.72013  0.90690  0.50503  Biso   1.000  F 
  F160     1.0000 0.59297  0.77965  0.50099  Biso   1.000  F 
  O111     1.0000 0.63260  0.92810  0.50000  Biso   1.000  O 
  O112     1.0000 0.57190  0.86740  0.50000  Biso   1.000  O 
  O113     1.0000 0.50000  0.07190  0.63260  Biso   1.000  O 
  C281     1.0000 0.50000  0.11720  0.61720  Biso   1.000  C 
  O114     1.0000 0.50000  0.13260  0.57190  Biso   1.000  O 
  C282     1.0000 0.50000  0.15650  0.65650  Biso   1.000  C 
  C283     1.0000 0.50000  0.14470  0.70580  Biso   1.000  C 
  C284     1.0000 0.50000  0.20580  0.64470  Biso   1.000  C 
  C285     1.0000 0.50000  0.17950  0.74200  Biso   1.000  C 
  F161     1.0000 0.50268  0.09298  0.72026  Biso   1.000  F 
  C286     1.0000 0.50000  0.24200  0.67950  Biso   1.000  C 
  F162     1.0000 0.50311  0.22034  0.59305  Biso   1.000  F 
  C287     1.0000 0.50000  0.23070  0.73070  Biso   1.000  C 
  C288     1.0000 0.50000  0.26930  0.76930  Biso   1.000  C 
  F163     1.0000 0.51995  0.16188  0.78876  Biso   1.000  F 
  C289     1.0000 0.50000  0.25800  0.82050  Biso   1.000  C 
  F164     1.0000 0.52836  0.28623  0.66573  Biso   1.000  F 
  C290     1.0000 0.50000  0.32050  0.75800  Biso   1.000  C 
  C291     1.0000 0.50000  0.29420  0.85530  Biso   1.000  C 
  F165     1.0000 0.48005  0.21124  0.83812  Biso   1.000  F 
  C292     1.0000 0.50000  0.35530  0.79420  Biso   1.000  C 
  F166     1.0000 0.47163  0.33427  0.71378  Biso   1.000  F 
  C293     1.0000 0.50000  0.34350  0.84350  Biso   1.000  C 
  C294     1.0000 0.50000  0.38280  0.88280  Biso   1.000  C 
  F167     1.0000 0.49731  0.27974  0.90702  Biso   1.000  F 
  F168     1.0000 0.49689  0.40695  0.77966  Biso   1.000  F 
  O115     1.0000 0.50000  0.36740  0.92810  Biso   1.000  O 
  O116     1.0000 0.50000  0.42810  0.86740  Biso   1.000  O 
  O117     1.0000 0.50000  0.07190  0.36740  Biso   1.000  O 
  C295     1.0000 0.50000  0.11720  0.38280  Biso   1.000  C 
  O118     1.0000 0.50000  0.13260  0.42810  Biso   1.000  O 
  C296     1.0000 0.50000  0.15650  0.34350  Biso   1.000  C 
  C297     1.0000 0.50000  0.14470  0.29420  Biso   1.000  C 
  C298     1.0000 0.50000  0.20580  0.35530  Biso   1.000  C 
  C299     1.0000 0.50000  0.17950  0.25800  Biso   1.000  C 
  F169     1.0000 0.50258  0.09298  0.27973  Biso   1.000  F 
  C300     1.0000 0.50000  0.24200  0.32050  Biso   1.000  C 
  F170     1.0000 0.50311  0.22034  0.40695  Biso   1.000  F 
  C301     1.0000 0.50000  0.23070  0.26930  Biso   1.000  C 
  C302     1.0000 0.50000  0.26930  0.23070  Biso   1.000  C 
  F171     1.0000 0.52051  0.16211  0.21114  Biso   1.000  F 
  C303     1.0000 0.50000  0.25800  0.17950  Biso   1.000  C 
  F172     1.0000 0.52836  0.28623  0.33428  Biso   1.000  F 
  C304     1.0000 0.50000  0.32050  0.24200  Biso   1.000  C 
  C305     1.0000 0.50000  0.29420  0.14470  Biso   1.000  C 
  F173     1.0000 0.47949  0.21114  0.16211  Biso   1.000  F 
  C306     1.0000 0.50000  0.35530  0.20580  Biso   1.000  C 
  F174     1.0000 0.47164  0.33428  0.28623  Biso   1.000  F 
  C307     1.0000 0.50000  0.34350  0.15650  Biso   1.000  C 
  C308     1.0000 0.50000  0.38280  0.11720  Biso   1.000  C 
  F175     1.0000 0.49742  0.27973  0.09298  Biso   1.000  F 
  F176     1.0000 0.49689  0.40695  0.22034  Biso   1.000  F 
  O119     1.0000 0.50000  0.36740  0.07190  Biso   1.000  O 
  O120     1.0000 0.50000  0.42810  0.13260  Biso   1.000  O 
  O121     1.0000 0.50000  0.92810  0.36740  Biso   1.000  O 
  C309     1.0000 0.50000  0.88280  0.38280  Biso   1.000  C 
  O122     1.0000 0.50000  0.86740  0.42810  Biso   1.000  O 
  C310     1.0000 0.50000  0.84350  0.34350  Biso   1.000  C 
  C311     1.0000 0.50000  0.85530  0.29420  Biso   1.000  C 
  C312     1.0000 0.50000  0.79420  0.35530  Biso   1.000  C 
  C313     1.0000 0.50000  0.82050  0.25800  Biso   1.000  C 
  F177     1.0000 0.49658  0.90698  0.27985  Biso   1.000  F 
  C314     1.0000 0.50000  0.75800  0.32050  Biso   1.000  C 
  F178     1.0000 0.49753  0.77960  0.40696  Biso   1.000  F 
  C315     1.0000 0.50000  0.76930  0.26930  Biso   1.000  C 
  C316     1.0000 0.50000  0.73070  0.23070  Biso   1.000  C 
  F179     1.0000 0.48322  0.83936  0.21162  Biso   1.000  F 
  C317     1.0000 0.50000  0.74200  0.17950  Biso   1.000  C 
  F180     1.0000 0.47104  0.71399  0.33341  Biso   1.000  F 
  C318     1.0000 0.50000  0.67950  0.24200  Biso   1.000  C 
  C319     1.0000 0.50000  0.70580  0.14470  Biso   1.000  C 
  F181     1.0000 0.51678  0.78838  0.16065  Biso   1.000  F 
  C320     1.0000 0.50000  0.64470  0.20580  Biso   1.000  C 
  F182     1.0000 0.52896  0.66659  0.28600  Biso   1.000  F 
  C321     1.0000 0.50000  0.65650  0.15650  Biso   1.000  C 
  C322     1.0000 0.50000  0.61720  0.11720  Biso   1.000  C 
  F183     1.0000 0.50345  0.72015  0.09302  Biso   1.000  F 
  F184     1.0000 0.50247  0.59304  0.22040  Biso   1.000  F 
  O123     1.0000 0.50000  0.63260  0.07190  Biso   1.000  O 
  O124     1.0000 0.50000  0.57190  0.13260  Biso   1.000  O 
  O125     1.0000 0.50000  0.92810  0.63260  Biso   1.000  O 
  C323     1.0000 0.50000  0.88280  0.61720  Biso   1.000  C 
  O126     1.0000 0.50000  0.86740  0.57190  Biso   1.000  O 
  C324     1.0000 0.50000  0.84350  0.65650  Biso   1.000  C 
  C325     1.0000 0.50000  0.85530  0.70580  Biso   1.000  C 
  C326     1.0000 0.50000  0.79420  0.64470  Biso   1.000  C 
  C327     1.0000 0.50000  0.82050  0.74200  Biso   1.000  C 
  F185     1.0000 0.49797  0.90703  0.72032  Biso   1.000  F 
  C328     1.0000 0.50000  0.75800  0.67950  Biso   1.000  C 
  F186     1.0000 0.49638  0.77972  0.59306  Biso   1.000  F 
  C329     1.0000 0.50000  0.76930  0.73070  Biso   1.000  C 
  C330     1.0000 0.50000  0.73070  0.76930  Biso   1.000  C 
  F187     1.0000 0.47741  0.83700  0.78905  Biso   1.000  F 
  C331     1.0000 0.50000  0.74200  0.82050  Biso   1.000  C 
  F188     1.0000 0.47316  0.71301  0.66450  Biso   1.000  F 
  C332     1.0000 0.50000  0.67950  0.75800  Biso   1.000  C 
  C333     1.0000 0.50000  0.70580  0.85530  Biso   1.000  C 
  F189     1.0000 0.52258  0.78905  0.83700  Biso   1.000  F 
  C334     1.0000 0.50000  0.64470  0.79420  Biso   1.000  C 
  F190     1.0000 0.52684  0.66449  0.71301  Biso   1.000  F 
  C335     1.0000 0.50000  0.65650  0.84350  Biso   1.000  C 
  C336     1.0000 0.50000  0.61720  0.88280  Biso   1.000  C 
  F191     1.0000 0.50204  0.72032  0.90703  Biso   1.000  F 
  F192     1.0000 0.50362  0.59306  0.77972  Biso   1.000  F 
  O127     1.0000 0.50000  0.63260  0.92810  Biso   1.000  O 
  O128     1.0000 0.50000  0.57190  0.86740  Biso   1.000  O 
