data_image0
_cell_length_a       26.896
_cell_length_b       26.896
_cell_length_c       26.896
_cell_angle_alpha    90
_cell_angle_beta     90
_cell_angle_gamma    90

_symmetry_space_group_name_H-M    "P 1"
_symmetry_int_tables_number       1

loop_
  _symmetry_equiv_pos_as_xyz
  'x, y, z'

loop_
  _atom_site_label
  _atom_site_occupancy
  _atom_site_fract_x
  _atom_site_fract_y
  _atom_site_fract_z
  _atom_site_thermal_displace_type
  _atom_site_B_iso_or_equiv
  _atom_site_type_symbol
  Zr1      1.0000 0.09204  0.00000  0.00000  Biso   1.000  Zr
  Zr2      1.0000 0.90796  0.00000  0.00000  Biso   1.000  Zr
  Zr3      1.0000 0.00000  0.09204  0.00000  Biso   1.000  Zr
  Zr4      1.0000 0.00000  0.90796  0.00000  Biso   1.000  Zr
  Zr5      1.0000 0.00000  0.00000  0.09204  Biso   1.000  Zr
  Zr6      1.0000 0.00000  0.00000  0.90796  Biso   1.000  Zr
  Zr7      1.0000 0.09204  0.50000  0.50000  Biso   1.000  Zr
  Zr8      1.0000 0.90796  0.50000  0.50000  Biso   1.000  Zr
  Zr9      1.0000 0.00000  0.59204  0.50000  Biso   1.000  Zr
  Zr10     1.0000 0.00000  0.40796  0.50000  Biso   1.000  Zr
  Zr11     1.0000 0.00000  0.50000  0.59204  Biso   1.000  Zr
  Zr12     1.0000 0.00000  0.50000  0.40796  Biso   1.000  Zr
  Zr13     1.0000 0.59204  0.00000  0.50000  Biso   1.000  Zr
  Zr14     1.0000 0.40796  0.00000  0.50000  Biso   1.000  Zr
  Zr15     1.0000 0.50000  0.09204  0.50000  Biso   1.000  Zr
  Zr16     1.0000 0.50000  0.90796  0.50000  Biso   1.000  Zr
  Zr17     1.0000 0.50000  0.00000  0.59204  Biso   1.000  Zr
  Zr18     1.0000 0.50000  0.00000  0.40796  Biso   1.000  Zr
  Zr19     1.0000 0.59204  0.50000  0.00000  Biso   1.000  Zr
  Zr20     1.0000 0.40796  0.50000  0.00000  Biso   1.000  Zr
  Zr21     1.0000 0.50000  0.59204  0.00000  Biso   1.000  Zr
  Zr22     1.0000 0.50000  0.40796  0.00000  Biso   1.000  Zr
  Zr23     1.0000 0.50000  0.50000  0.09204  Biso   1.000  Zr
  Zr24     1.0000 0.50000  0.50000  0.90796  Biso   1.000  Zr
  O1       1.0000 0.04540  0.04540  0.04540  Biso   1.000  O 
  O2       1.0000 0.95460  0.95460  0.04540  Biso   1.000  O 
  O3       1.0000 0.95460  0.04540  0.95460  Biso   1.000  O 
  O4       1.0000 0.04540  0.95460  0.95460  Biso   1.000  O 
  O5       1.0000 0.04540  0.04540  0.95460  Biso   1.000  O 
  O6       1.0000 0.95460  0.95460  0.95460  Biso   1.000  O 
  O7       1.0000 0.04540  0.95460  0.04540  Biso   1.000  O 
  O8       1.0000 0.95460  0.04540  0.04540  Biso   1.000  O 
  O9       1.0000 0.04540  0.54540  0.54540  Biso   1.000  O 
  O10      1.0000 0.95460  0.45460  0.54540  Biso   1.000  O 
  O11      1.0000 0.95460  0.54540  0.45460  Biso   1.000  O 
  O12      1.0000 0.04540  0.45460  0.45460  Biso   1.000  O 
  O13      1.0000 0.04540  0.54540  0.45460  Biso   1.000  O 
  O14      1.0000 0.95460  0.45460  0.45460  Biso   1.000  O 
  O15      1.0000 0.04540  0.45460  0.54540  Biso   1.000  O 
  O16      1.0000 0.95460  0.54540  0.54540  Biso   1.000  O 
  O17      1.0000 0.54540  0.04540  0.54540  Biso   1.000  O 
  O18      1.0000 0.45460  0.95460  0.54540  Biso   1.000  O 
  O19      1.0000 0.45460  0.04540  0.45460  Biso   1.000  O 
  O20      1.0000 0.54540  0.95460  0.45460  Biso   1.000  O 
  O21      1.0000 0.54540  0.04540  0.45460  Biso   1.000  O 
  O22      1.0000 0.45460  0.95460  0.45460  Biso   1.000  O 
  O23      1.0000 0.54540  0.95460  0.54540  Biso   1.000  O 
  O24      1.0000 0.45460  0.04540  0.54540  Biso   1.000  O 
  O25      1.0000 0.54540  0.54540  0.04540  Biso   1.000  O 
  O26      1.0000 0.45460  0.45460  0.04540  Biso   1.000  O 
  O27      1.0000 0.45460  0.54540  0.95460  Biso   1.000  O 
  O28      1.0000 0.54540  0.45460  0.95460  Biso   1.000  O 
  O29      1.0000 0.54540  0.54540  0.95460  Biso   1.000  O 
  O30      1.0000 0.45460  0.45460  0.95460  Biso   1.000  O 
  O31      1.0000 0.54540  0.45460  0.04540  Biso   1.000  O 
  O32      1.0000 0.45460  0.54540  0.04540  Biso   1.000  O 
  O33      1.0000 0.13260  0.00000  0.07190  Biso   1.000  O 
  C1       1.0000 0.11720  0.00000  0.11720  Biso   1.000  C 
  O34      1.0000 0.07190  0.00000  0.13260  Biso   1.000  O 
  C2       1.0000 0.15650  0.00000  0.15650  Biso   1.000  C 
  C3       1.0000 0.20580  0.00000  0.14470  Biso   1.000  C 
  C4       1.0000 0.14470  0.00000  0.20580  Biso   1.000  C 
  C5       1.0000 0.24200  0.00000  0.17950  Biso   1.000  C 
  H1       1.0000 0.21490  0.00000  0.11140  Biso   1.000  H 
  C6       1.0000 0.17950  0.00000  0.24200  Biso   1.000  C 
  O35      1.0000 0.09276  0.99266  0.22205  Biso   1.000  O 
  C7       1.0000 0.23070  0.00000  0.23070  Biso   1.000  C 
  C8       1.0000 0.26930  0.00000  0.26930  Biso   1.000  C 
  H2       1.0000 0.27510  0.00000  0.16950  Biso   1.000  H 
  C9       1.0000 0.32050  0.00000  0.25800  Biso   1.000  C 
  H3       1.0000 0.16950  0.00000  0.27510  Biso   1.000  H 
  C10      1.0000 0.25800  0.00000  0.32050  Biso   1.000  C 
  C11      1.0000 0.35530  0.00000  0.29420  Biso   1.000  C 
  H4       1.0000 0.33050  0.00000  0.22490  Biso   1.000  H 
  C12      1.0000 0.29420  0.00000  0.35530  Biso   1.000  C 
  H5       1.0000 0.22490  0.00000  0.33050  Biso   1.000  H 
  C13      1.0000 0.34350  0.00000  0.34350  Biso   1.000  C 
  C14      1.0000 0.38280  0.00000  0.38280  Biso   1.000  C 
  O36      1.0000 0.40770  0.00295  0.28100  Biso   1.000  O 
  H6       1.0000 0.28510  0.00000  0.38860  Biso   1.000  H 
  O37      1.0000 0.42810  0.00000  0.36740  Biso   1.000  O 
  O38      1.0000 0.36740  0.00000  0.42810  Biso   1.000  O 
  C15      1.0000 0.41980  0.05338  0.26886  Biso   1.000  C 
  C16      1.0000 0.07003  0.03929  0.23314  Biso   1.000  C 
  C17      1.0000 0.44745  0.05342  0.21593  Biso   1.000  C 
  H7       1.0000 0.43874  0.06688  0.30377  Biso   1.000  H 
  H8       1.0000 0.38500  0.07623  0.26537  Biso   1.000  H 
  H9       1.0000 0.45847  0.09283  0.20705  Biso   1.000  H 
  C18      1.0000 0.41516  0.03767  0.17285  Biso   1.000  C 
  H10      1.0000 0.48154  0.03175  0.21559  Biso   1.000  H 
  H11      1.0000 0.40641  0.99692  0.17297  Biso   1.000  H 
  H12      1.0000 0.43312  0.04512  0.13814  Biso   1.000  H 
  C19      1.0000 0.07570  0.05585  0.28778  Biso   1.000  C 
  H13      1.0000 0.02957  0.03389  0.22677  Biso   1.000  H 
  H14      1.0000 0.08312  0.06978  0.20808  Biso   1.000  H 
  C20      1.0000 0.06863  0.01339  0.32450  Biso   1.000  C 
  H15      1.0000 0.04838  0.08581  0.29632  Biso   1.000  H 
  H16      1.0000 0.11336  0.07145  0.29253  Biso   1.000  H 
  H17      1.0000 0.04876  0.98138  0.30746  Biso   1.000  H 
  H18      1.0000 0.10488  0.00045  0.33890  Biso   1.000  H 
  H19      1.0000 0.37969  0.06114  0.17528  Biso   1.000  H 
  H20      1.0000 0.04635  0.02723  0.35619  Biso   1.000  H 
  O39      1.0000 0.86740  0.00000  0.07190  Biso   1.000  O 
  C21      1.0000 0.88280  0.00000  0.11720  Biso   1.000  C 
  O40      1.0000 0.92810  0.00000  0.13260  Biso   1.000  O 
  C22      1.0000 0.84350  0.00000  0.15650  Biso   1.000  C 
  C23      1.0000 0.79420  0.00000  0.14470  Biso   1.000  C 
  C24      1.0000 0.85530  0.00000  0.20580  Biso   1.000  C 
  C25      1.0000 0.75800  0.00000  0.17950  Biso   1.000  C 
  H21      1.0000 0.78510  0.00000  0.11140  Biso   1.000  H 
  C26      1.0000 0.82050  0.00000  0.24200  Biso   1.000  C 
  O41      1.0000 0.90724  0.00734  0.22205  Biso   1.000  O 
  C27      1.0000 0.76930  0.00000  0.23070  Biso   1.000  C 
  C28      1.0000 0.73070  0.00000  0.26930  Biso   1.000  C 
  H22      1.0000 0.72490  0.00000  0.16950  Biso   1.000  H 
  C29      1.0000 0.67950  0.00000  0.25800  Biso   1.000  C 
  H23      1.0000 0.83050  0.00000  0.27510  Biso   1.000  H 
  C30      1.0000 0.74200  0.00000  0.32050  Biso   1.000  C 
  C31      1.0000 0.64470  0.00000  0.29420  Biso   1.000  C 
  H24      1.0000 0.66950  0.00000  0.22490  Biso   1.000  H 
  C32      1.0000 0.70580  0.00000  0.35530  Biso   1.000  C 
  H25      1.0000 0.77510  0.00000  0.33050  Biso   1.000  H 
  C33      1.0000 0.65650  0.00000  0.34350  Biso   1.000  C 
  C34      1.0000 0.61720  0.00000  0.38280  Biso   1.000  C 
  O42      1.0000 0.59230  0.99704  0.28100  Biso   1.000  O 
  H26      1.0000 0.71490  0.00000  0.38860  Biso   1.000  H 
  O43      1.0000 0.57190  0.00000  0.36740  Biso   1.000  O 
  O44      1.0000 0.63260  0.00000  0.42810  Biso   1.000  O 
  C35      1.0000 0.58020  0.94662  0.26886  Biso   1.000  C 
  C36      1.0000 0.92997  0.96071  0.23314  Biso   1.000  C 
  C37      1.0000 0.55255  0.94658  0.21593  Biso   1.000  C 
  H27      1.0000 0.56126  0.93312  0.30377  Biso   1.000  H 
  H28      1.0000 0.61500  0.92377  0.26537  Biso   1.000  H 
  H29      1.0000 0.54153  0.90717  0.20705  Biso   1.000  H 
  C38      1.0000 0.58484  0.96233  0.17285  Biso   1.000  C 
  H30      1.0000 0.51846  0.96826  0.21559  Biso   1.000  H 
  H31      1.0000 0.59359  0.00308  0.17297  Biso   1.000  H 
  H32      1.0000 0.56688  0.95488  0.13814  Biso   1.000  H 
  C39      1.0000 0.92430  0.94415  0.28778  Biso   1.000  C 
  H33      1.0000 0.97043  0.96611  0.22677  Biso   1.000  H 
  H34      1.0000 0.91688  0.93022  0.20808  Biso   1.000  H 
  C40      1.0000 0.93137  0.98661  0.32450  Biso   1.000  C 
  H35      1.0000 0.95162  0.91419  0.29632  Biso   1.000  H 
  H36      1.0000 0.88664  0.92855  0.29253  Biso   1.000  H 
  H37      1.0000 0.95123  0.01862  0.30746  Biso   1.000  H 
  H38      1.0000 0.89512  0.99955  0.33890  Biso   1.000  H 
  H39      1.0000 0.62031  0.93886  0.17528  Biso   1.000  H 
  H40      1.0000 0.95364  0.97277  0.35619  Biso   1.000  H 
  O45      1.0000 0.86740  0.00000  0.92810  Biso   1.000  O 
  C41      1.0000 0.88280  0.00000  0.88280  Biso   1.000  C 
  O46      1.0000 0.92810  0.00000  0.86740  Biso   1.000  O 
  C42      1.0000 0.84350  0.00000  0.84350  Biso   1.000  C 
  C43      1.0000 0.79420  0.00000  0.85530  Biso   1.000  C 
  C44      1.0000 0.85530  0.00000  0.79420  Biso   1.000  C 
  C45      1.0000 0.75800  0.00000  0.82050  Biso   1.000  C 
  H41      1.0000 0.78510  0.00000  0.88860  Biso   1.000  H 
  C46      1.0000 0.82050  0.00000  0.75800  Biso   1.000  C 
  O47      1.0000 0.90724  0.99266  0.77794  Biso   1.000  O 
  C47      1.0000 0.76930  0.00000  0.76930  Biso   1.000  C 
  C48      1.0000 0.73070  0.00000  0.73070  Biso   1.000  C 
  H42      1.0000 0.72490  0.00000  0.83050  Biso   1.000  H 
  C49      1.0000 0.67950  0.00000  0.74200  Biso   1.000  C 
  H43      1.0000 0.83050  0.00000  0.72490  Biso   1.000  H 
  C50      1.0000 0.74200  0.00000  0.67950  Biso   1.000  C 
  C51      1.0000 0.64470  0.00000  0.70580  Biso   1.000  C 
  H44      1.0000 0.66950  0.00000  0.77510  Biso   1.000  H 
  C52      1.0000 0.70580  0.00000  0.64470  Biso   1.000  C 
  H45      1.0000 0.77510  0.00000  0.66950  Biso   1.000  H 
  C53      1.0000 0.65650  0.00000  0.65650  Biso   1.000  C 
  C54      1.0000 0.61720  0.00000  0.61720  Biso   1.000  C 
  O48      1.0000 0.59230  0.00295  0.71900  Biso   1.000  O 
  H46      1.0000 0.71490  0.00000  0.61140  Biso   1.000  H 
  O49      1.0000 0.57190  0.00000  0.63260  Biso   1.000  O 
  O50      1.0000 0.63260  0.00000  0.57190  Biso   1.000  O 
  C55      1.0000 0.58020  0.05338  0.73114  Biso   1.000  C 
  C56      1.0000 0.92997  0.03929  0.76686  Biso   1.000  C 
  C57      1.0000 0.55255  0.05342  0.78407  Biso   1.000  C 
  H47      1.0000 0.56126  0.06688  0.69623  Biso   1.000  H 
  H48      1.0000 0.61500  0.07623  0.73463  Biso   1.000  H 
  H49      1.0000 0.54153  0.09283  0.79295  Biso   1.000  H 
  C58      1.0000 0.58484  0.03767  0.82715  Biso   1.000  C 
  H50      1.0000 0.51846  0.03175  0.78441  Biso   1.000  H 
  H51      1.0000 0.59359  0.99692  0.82703  Biso   1.000  H 
  H52      1.0000 0.56688  0.04512  0.86186  Biso   1.000  H 
  C59      1.0000 0.92430  0.05585  0.71222  Biso   1.000  C 
  H53      1.0000 0.97043  0.03389  0.77323  Biso   1.000  H 
  H54      1.0000 0.91688  0.06978  0.79192  Biso   1.000  H 
  C60      1.0000 0.93137  0.01339  0.67550  Biso   1.000  C 
  H55      1.0000 0.95162  0.08581  0.70368  Biso   1.000  H 
  H56      1.0000 0.88664  0.07145  0.70747  Biso   1.000  H 
  H57      1.0000 0.95123  0.98138  0.69254  Biso   1.000  H 
  H58      1.0000 0.89512  0.00045  0.66110  Biso   1.000  H 
  H59      1.0000 0.62031  0.06114  0.82472  Biso   1.000  H 
  H60      1.0000 0.95364  0.02723  0.64381  Biso   1.000  H 
  O51      1.0000 0.13260  0.00000  0.92810  Biso   1.000  O 
  C61      1.0000 0.11720  0.00000  0.88280  Biso   1.000  C 
  O52      1.0000 0.07190  0.00000  0.86740  Biso   1.000  O 
  C62      1.0000 0.15650  0.00000  0.84350  Biso   1.000  C 
  C63      1.0000 0.20580  0.00000  0.85530  Biso   1.000  C 
  C64      1.0000 0.14470  0.00000  0.79420  Biso   1.000  C 
  C65      1.0000 0.24200  0.00000  0.82050  Biso   1.000  C 
  H61      1.0000 0.21490  0.00000  0.88860  Biso   1.000  H 
  C66      1.0000 0.17950  0.00000  0.75800  Biso   1.000  C 
  O53      1.0000 0.09276  0.00734  0.77794  Biso   1.000  O 
  C67      1.0000 0.23070  0.00000  0.76930  Biso   1.000  C 
  C68      1.0000 0.26930  0.00000  0.73070  Biso   1.000  C 
  H62      1.0000 0.27510  0.00000  0.83050  Biso   1.000  H 
  C69      1.0000 0.32050  0.00000  0.74200  Biso   1.000  C 
  H63      1.0000 0.16950  0.00000  0.72490  Biso   1.000  H 
  C70      1.0000 0.25800  0.00000  0.67950  Biso   1.000  C 
  C71      1.0000 0.35530  0.00000  0.70580  Biso   1.000  C 
  H64      1.0000 0.33050  0.00000  0.77510  Biso   1.000  H 
  C72      1.0000 0.29420  0.00000  0.64470  Biso   1.000  C 
  H65      1.0000 0.22490  0.00000  0.66950  Biso   1.000  H 
  C73      1.0000 0.34350  0.00000  0.65650  Biso   1.000  C 
  C74      1.0000 0.38280  0.00000  0.61720  Biso   1.000  C 
  O54      1.0000 0.40770  0.99704  0.71900  Biso   1.000  O 
  H66      1.0000 0.28510  0.00000  0.61140  Biso   1.000  H 
  O55      1.0000 0.42810  0.00000  0.63260  Biso   1.000  O 
  O56      1.0000 0.36740  0.00000  0.57190  Biso   1.000  O 
  C75      1.0000 0.41980  0.94662  0.73114  Biso   1.000  C 
  C76      1.0000 0.07003  0.96071  0.76686  Biso   1.000  C 
  C77      1.0000 0.44745  0.94658  0.78407  Biso   1.000  C 
  H67      1.0000 0.43874  0.93312  0.69623  Biso   1.000  H 
  H68      1.0000 0.38500  0.92377  0.73463  Biso   1.000  H 
  H69      1.0000 0.45847  0.90717  0.79295  Biso   1.000  H 
  C78      1.0000 0.41516  0.96233  0.82715  Biso   1.000  C 
  H70      1.0000 0.48154  0.96826  0.78441  Biso   1.000  H 
  H71      1.0000 0.40641  0.00308  0.82703  Biso   1.000  H 
  H72      1.0000 0.43312  0.95488  0.86186  Biso   1.000  H 
  C79      1.0000 0.07570  0.94415  0.71222  Biso   1.000  C 
  H73      1.0000 0.02957  0.96611  0.77323  Biso   1.000  H 
  H74      1.0000 0.08312  0.93022  0.79192  Biso   1.000  H 
  C80      1.0000 0.06863  0.98661  0.67550  Biso   1.000  C 
  H75      1.0000 0.04838  0.91419  0.70368  Biso   1.000  H 
  H76      1.0000 0.11336  0.92855  0.70747  Biso   1.000  H 
  H77      1.0000 0.04876  0.01862  0.69254  Biso   1.000  H 
  H78      1.0000 0.10488  0.99955  0.66110  Biso   1.000  H 
  H79      1.0000 0.37969  0.93886  0.82472  Biso   1.000  H 
  H80      1.0000 0.04635  0.97277  0.64381  Biso   1.000  H 
  O57      1.0000 0.07190  0.13260  0.00000  Biso   1.000  O 
  C81      1.0000 0.11720  0.11720  0.00000  Biso   1.000  C 
  O58      1.0000 0.13260  0.07190  0.00000  Biso   1.000  O 
  C82      1.0000 0.15650  0.15650  0.00000  Biso   1.000  C 
  C83      1.0000 0.14470  0.20580  0.00000  Biso   1.000  C 
  C84      1.0000 0.20580  0.14470  0.00000  Biso   1.000  C 
  C85      1.0000 0.17950  0.24200  0.00000  Biso   1.000  C 
  H81      1.0000 0.11140  0.21490  0.00000  Biso   1.000  H 
  C86      1.0000 0.24200  0.17950  0.00000  Biso   1.000  C 
  O59      1.0000 0.22176  0.09279  0.99256  Biso   1.000  O 
  C87      1.0000 0.23070  0.23070  0.00000  Biso   1.000  C 
  C88      1.0000 0.26930  0.26930  0.00000  Biso   1.000  C 
  H82      1.0000 0.16950  0.27510  0.00000  Biso   1.000  H 
  C89      1.0000 0.25800  0.32050  0.00000  Biso   1.000  C 
  H83      1.0000 0.27510  0.16950  0.00000  Biso   1.000  H 
  C90      1.0000 0.32050  0.25800  0.00000  Biso   1.000  C 
  C91      1.0000 0.29420  0.35530  0.00000  Biso   1.000  C 
  H84      1.0000 0.22490  0.33050  0.00000  Biso   1.000  H 
  C92      1.0000 0.35530  0.29420  0.00000  Biso   1.000  C 
  H85      1.0000 0.33050  0.22490  0.00000  Biso   1.000  H 
  C93      1.0000 0.34350  0.34350  0.00000  Biso   1.000  C 
  C94      1.0000 0.38280  0.38280  0.00000  Biso   1.000  C 
  O60      1.0000 0.28004  0.40831  0.99179  Biso   1.000  O 
  H86      1.0000 0.38860  0.28510  0.00000  Biso   1.000  H 
  O61      1.0000 0.36740  0.42810  0.00000  Biso   1.000  O 
  O62      1.0000 0.42810  0.36740  0.00000  Biso   1.000  O 
  C95      1.0000 0.23698  0.42607  0.01852  Biso   1.000  C 
  C96      1.0000 0.23262  0.07021  0.03920  Biso   1.000  C 
  C97      1.0000 0.19745  0.43597  0.97629  Biso   1.000  C 
  H87      1.0000 0.24893  0.46279  0.03675  Biso   1.000  H 
  H88      1.0000 0.22105  0.39890  0.04577  Biso   1.000  H 
  H89      1.0000 0.20020  0.47135  0.95887  Biso   1.000  H 
  C98      1.0000 0.14807  0.44026  0.99968  Biso   1.000  C 
  H90      1.0000 0.20020  0.40722  0.94760  Biso   1.000  H 
  H91      1.0000 0.11935  0.44956  0.97236  Biso   1.000  H 
  H92      1.0000 0.14996  0.46942  0.03014  Biso   1.000  H 
  C99      1.0000 0.28768  0.07431  0.05417  Biso   1.000  C 
  H93      1.0000 0.22455  0.02999  0.03450  Biso   1.000  H 
  H94      1.0000 0.20887  0.08470  0.07014  Biso   1.000  H 
  C100     1.0000 0.32323  0.06526  0.01079  Biso   1.000  C 
  H95      1.0000 0.29604  0.04737  0.08451  Biso   1.000  H 
  H96      1.0000 0.29390  0.11212  0.06888  Biso   1.000  H 
  H97      1.0000 0.30449  0.04963  0.97740  Biso   1.000  H 
  H98      1.0000 0.34152  0.10050  0.00039  Biso   1.000  H 
  H99      1.0000 0.13801  0.40526  0.01866  Biso   1.000  H 
  H100     1.0000 0.35240  0.03898  0.02316  Biso   1.000  H 
  O63      1.0000 0.07190  0.86740  0.00000  Biso   1.000  O 
  C101     1.0000 0.11720  0.88280  0.00000  Biso   1.000  C 
  O64      1.0000 0.13260  0.92810  0.00000  Biso   1.000  O 
  C102     1.0000 0.15650  0.84350  0.00000  Biso   1.000  C 
  C103     1.0000 0.14470  0.79420  0.00000  Biso   1.000  C 
  C104     1.0000 0.20580  0.85530  0.00000  Biso   1.000  C 
  C105     1.0000 0.17950  0.75800  0.00000  Biso   1.000  C 
  H101     1.0000 0.11140  0.78510  0.00000  Biso   1.000  H 
  C106     1.0000 0.24200  0.82050  0.00000  Biso   1.000  C 
  O65      1.0000 0.22176  0.90721  0.00744  Biso   1.000  O 
  C107     1.0000 0.23070  0.76930  0.00000  Biso   1.000  C 
  C108     1.0000 0.26930  0.73070  0.00000  Biso   1.000  C 
  H102     1.0000 0.16950  0.72490  0.00000  Biso   1.000  H 
  C109     1.0000 0.25800  0.67950  0.00000  Biso   1.000  C 
  H103     1.0000 0.27510  0.83050  0.00000  Biso   1.000  H 
  C110     1.0000 0.32050  0.74200  0.00000  Biso   1.000  C 
  C111     1.0000 0.29420  0.64470  0.00000  Biso   1.000  C 
  H104     1.0000 0.22490  0.66950  0.00000  Biso   1.000  H 
  C112     1.0000 0.35530  0.70580  0.00000  Biso   1.000  C 
  H105     1.0000 0.33050  0.77510  0.00000  Biso   1.000  H 
  C113     1.0000 0.34350  0.65650  0.00000  Biso   1.000  C 
  C114     1.0000 0.38280  0.61720  0.00000  Biso   1.000  C 
  O66      1.0000 0.28004  0.59169  0.00821  Biso   1.000  O 
  H106     1.0000 0.38860  0.71490  0.00000  Biso   1.000  H 
  O67      1.0000 0.36740  0.57190  0.00000  Biso   1.000  O 
  O68      1.0000 0.42810  0.63260  0.00000  Biso   1.000  O 
  C115     1.0000 0.23698  0.57393  0.98148  Biso   1.000  C 
  C116     1.0000 0.23262  0.92979  0.96080  Biso   1.000  C 
  C117     1.0000 0.19745  0.56403  0.02371  Biso   1.000  C 
  H107     1.0000 0.24893  0.53721  0.96325  Biso   1.000  H 
  H108     1.0000 0.22105  0.60110  0.95423  Biso   1.000  H 
  H109     1.0000 0.20020  0.52865  0.04113  Biso   1.000  H 
  C118     1.0000 0.14807  0.55974  0.00032  Biso   1.000  C 
  H110     1.0000 0.20020  0.59278  0.05240  Biso   1.000  H 
  H111     1.0000 0.11935  0.55044  0.02764  Biso   1.000  H 
  H112     1.0000 0.14996  0.53058  0.96987  Biso   1.000  H 
  C119     1.0000 0.28768  0.92569  0.94582  Biso   1.000  C 
  H113     1.0000 0.22455  0.97001  0.96550  Biso   1.000  H 
  H114     1.0000 0.20887  0.91530  0.92986  Biso   1.000  H 
  C120     1.0000 0.32323  0.93474  0.98921  Biso   1.000  C 
  H115     1.0000 0.29604  0.95263  0.91549  Biso   1.000  H 
  H116     1.0000 0.29390  0.88788  0.93112  Biso   1.000  H 
  H117     1.0000 0.30449  0.95037  0.02260  Biso   1.000  H 
  H118     1.0000 0.34152  0.89950  0.99961  Biso   1.000  H 
  H119     1.0000 0.13801  0.59474  0.98134  Biso   1.000  H 
  H120     1.0000 0.35240  0.96102  0.97684  Biso   1.000  H 
  O69      1.0000 0.92810  0.86740  0.00000  Biso   1.000  O 
  C121     1.0000 0.88280  0.88280  0.00000  Biso   1.000  C 
  O70      1.0000 0.86740  0.92810  0.00000  Biso   1.000  O 
  C122     1.0000 0.84350  0.84350  0.00000  Biso   1.000  C 
  C123     1.0000 0.85530  0.79420  0.00000  Biso   1.000  C 
  C124     1.0000 0.79420  0.85530  0.00000  Biso   1.000  C 
  C125     1.0000 0.82050  0.75800  0.00000  Biso   1.000  C 
  H121     1.0000 0.88860  0.78510  0.00000  Biso   1.000  H 
  C126     1.0000 0.75800  0.82050  0.00000  Biso   1.000  C 
  O71      1.0000 0.77824  0.90721  0.99256  Biso   1.000  O 
  C127     1.0000 0.76930  0.76930  0.00000  Biso   1.000  C 
  C128     1.0000 0.73070  0.73070  0.00000  Biso   1.000  C 
  H122     1.0000 0.83050  0.72490  0.00000  Biso   1.000  H 
  C129     1.0000 0.74200  0.67950  0.00000  Biso   1.000  C 
  H123     1.0000 0.72490  0.83050  0.00000  Biso   1.000  H 
  C130     1.0000 0.67950  0.74200  0.00000  Biso   1.000  C 
  C131     1.0000 0.70580  0.64470  0.00000  Biso   1.000  C 
  H124     1.0000 0.77510  0.66950  0.00000  Biso   1.000  H 
  C132     1.0000 0.64470  0.70580  0.00000  Biso   1.000  C 
  H125     1.0000 0.66950  0.77510  0.00000  Biso   1.000  H 
  C133     1.0000 0.65650  0.65650  0.00000  Biso   1.000  C 
  C134     1.0000 0.61720  0.61720  0.00000  Biso   1.000  C 
  O72      1.0000 0.71996  0.59169  0.99179  Biso   1.000  O 
  H126     1.0000 0.61140  0.71490  0.00000  Biso   1.000  H 
  O73      1.0000 0.63260  0.57190  0.00000  Biso   1.000  O 
  O74      1.0000 0.57190  0.63260  0.00000  Biso   1.000  O 
  C135     1.0000 0.76302  0.57393  0.01852  Biso   1.000  C 
  C136     1.0000 0.76738  0.92979  0.03920  Biso   1.000  C 
  C137     1.0000 0.80255  0.56403  0.97629  Biso   1.000  C 
  H127     1.0000 0.75107  0.53721  0.03675  Biso   1.000  H 
  H128     1.0000 0.77895  0.60110  0.04577  Biso   1.000  H 
  H129     1.0000 0.79980  0.52865  0.95887  Biso   1.000  H 
  C138     1.0000 0.85193  0.55974  0.99968  Biso   1.000  C 
  H130     1.0000 0.79980  0.59278  0.94760  Biso   1.000  H 
  H131     1.0000 0.88065  0.55044  0.97236  Biso   1.000  H 
  H132     1.0000 0.85004  0.53058  0.03014  Biso   1.000  H 
  C139     1.0000 0.71232  0.92569  0.05417  Biso   1.000  C 
  H133     1.0000 0.77545  0.97001  0.03450  Biso   1.000  H 
  H134     1.0000 0.79113  0.91530  0.07014  Biso   1.000  H 
  C140     1.0000 0.67677  0.93474  0.01079  Biso   1.000  C 
  H135     1.0000 0.70396  0.95263  0.08451  Biso   1.000  H 
  H136     1.0000 0.70610  0.88788  0.06888  Biso   1.000  H 
  H137     1.0000 0.69551  0.95037  0.97740  Biso   1.000  H 
  H138     1.0000 0.65848  0.89950  0.00039  Biso   1.000  H 
  H139     1.0000 0.86199  0.59474  0.01866  Biso   1.000  H 
  H140     1.0000 0.64760  0.96102  0.02316  Biso   1.000  H 
  O75      1.0000 0.92810  0.13260  0.00000  Biso   1.000  O 
  C141     1.0000 0.88280  0.11720  0.00000  Biso   1.000  C 
  O76      1.0000 0.86740  0.07190  0.00000  Biso   1.000  O 
  C142     1.0000 0.84350  0.15650  0.00000  Biso   1.000  C 
  C143     1.0000 0.85530  0.20580  0.00000  Biso   1.000  C 
  C144     1.0000 0.79420  0.14470  0.00000  Biso   1.000  C 
  C145     1.0000 0.82050  0.24200  0.00000  Biso   1.000  C 
  H141     1.0000 0.88860  0.21490  0.00000  Biso   1.000  H 
  C146     1.0000 0.75800  0.17950  0.00000  Biso   1.000  C 
  O77      1.0000 0.77824  0.09279  0.00744  Biso   1.000  O 
  C147     1.0000 0.76930  0.23070  0.00000  Biso   1.000  C 
  C148     1.0000 0.73070  0.26930  0.00000  Biso   1.000  C 
  H142     1.0000 0.83050  0.27510  0.00000  Biso   1.000  H 
  C149     1.0000 0.74200  0.32050  0.00000  Biso   1.000  C 
  H143     1.0000 0.72490  0.16950  0.00000  Biso   1.000  H 
  C150     1.0000 0.67950  0.25800  0.00000  Biso   1.000  C 
  C151     1.0000 0.70580  0.35530  0.00000  Biso   1.000  C 
  H144     1.0000 0.77510  0.33050  0.00000  Biso   1.000  H 
  C152     1.0000 0.64470  0.29420  0.00000  Biso   1.000  C 
  H145     1.0000 0.66950  0.22490  0.00000  Biso   1.000  H 
  C153     1.0000 0.65650  0.34350  0.00000  Biso   1.000  C 
  C154     1.0000 0.61720  0.38280  0.00000  Biso   1.000  C 
  O78      1.0000 0.71996  0.40831  0.00821  Biso   1.000  O 
  H146     1.0000 0.61140  0.28510  0.00000  Biso   1.000  H 
  O79      1.0000 0.63260  0.42810  0.00000  Biso   1.000  O 
  O80      1.0000 0.57190  0.36740  0.00000  Biso   1.000  O 
  C155     1.0000 0.76302  0.42607  0.98148  Biso   1.000  C 
  C156     1.0000 0.76738  0.07021  0.96080  Biso   1.000  C 
  C157     1.0000 0.80255  0.43597  0.02371  Biso   1.000  C 
  H147     1.0000 0.75107  0.46279  0.96325  Biso   1.000  H 
  H148     1.0000 0.77895  0.39890  0.95423  Biso   1.000  H 
  H149     1.0000 0.79980  0.47135  0.04113  Biso   1.000  H 
  C158     1.0000 0.85193  0.44026  0.00032  Biso   1.000  C 
  H150     1.0000 0.79980  0.40722  0.05240  Biso   1.000  H 
  H151     1.0000 0.88065  0.44956  0.02764  Biso   1.000  H 
  H152     1.0000 0.85004  0.46942  0.96987  Biso   1.000  H 
  C159     1.0000 0.71232  0.07431  0.94582  Biso   1.000  C 
  H153     1.0000 0.77545  0.02999  0.96550  Biso   1.000  H 
  H154     1.0000 0.79113  0.08470  0.92986  Biso   1.000  H 
  C160     1.0000 0.67677  0.06526  0.98921  Biso   1.000  C 
  H155     1.0000 0.70396  0.04737  0.91549  Biso   1.000  H 
  H156     1.0000 0.70610  0.11212  0.93112  Biso   1.000  H 
  H157     1.0000 0.69551  0.04963  0.02260  Biso   1.000  H 
  H158     1.0000 0.65848  0.10050  0.99961  Biso   1.000  H 
  H159     1.0000 0.86199  0.40526  0.98134  Biso   1.000  H 
  H160     1.0000 0.64760  0.03898  0.97684  Biso   1.000  H 
  O81      1.0000 0.00000  0.07190  0.13260  Biso   1.000  O 
  C161     1.0000 0.00000  0.11720  0.11720  Biso   1.000  C 
  O82      1.0000 0.00000  0.13260  0.07190  Biso   1.000  O 
  C162     1.0000 0.00000  0.15650  0.15650  Biso   1.000  C 
  C163     1.0000 0.00000  0.14470  0.20580  Biso   1.000  C 
  C164     1.0000 0.00000  0.20580  0.14470  Biso   1.000  C 
  C165     1.0000 0.00000  0.17950  0.24200  Biso   1.000  C 
  H161     1.0000 0.00000  0.11140  0.21490  Biso   1.000  H 
  C166     1.0000 0.00000  0.24200  0.17950  Biso   1.000  C 
  O83      1.0000 0.99482  0.22290  0.09267  Biso   1.000  O 
  C167     1.0000 0.00000  0.23070  0.23070  Biso   1.000  C 
  C168     1.0000 0.00000  0.26930  0.26930  Biso   1.000  C 
  H162     1.0000 0.00000  0.16950  0.27510  Biso   1.000  H 
  C169     1.0000 0.00000  0.25800  0.32050  Biso   1.000  C 
  H163     1.0000 0.00000  0.27510  0.16950  Biso   1.000  H 
  C170     1.0000 0.00000  0.32050  0.25800  Biso   1.000  C 
  C171     1.0000 0.00000  0.29420  0.35530  Biso   1.000  C 
  H164     1.0000 0.00000  0.22490  0.33050  Biso   1.000  H 
  C172     1.0000 0.00000  0.35530  0.29420  Biso   1.000  C 
  H165     1.0000 0.00000  0.33050  0.22490  Biso   1.000  H 
  C173     1.0000 0.00000  0.34350  0.34350  Biso   1.000  C 
  C174     1.0000 0.00000  0.38280  0.38280  Biso   1.000  C 
  O84      1.0000 0.99465  0.27927  0.40868  Biso   1.000  O 
  H166     1.0000 0.00000  0.38860  0.28510  Biso   1.000  H 
  O85      1.0000 0.00000  0.36740  0.42810  Biso   1.000  O 
  O86      1.0000 0.00000  0.42810  0.36740  Biso   1.000  O 
  C175     1.0000 0.04116  0.26900  0.42943  Biso   1.000  C 
  C176     1.0000 0.03997  0.24251  0.07328  Biso   1.000  C 
  C177     1.0000 0.06557  0.21946  0.41085  Biso   1.000  C 
  H167     1.0000 0.03680  0.26700  0.46974  Biso   1.000  H 
  H168     1.0000 0.06765  0.29947  0.42178  Biso   1.000  H 
  H169     1.0000 0.08595  0.20071  0.44152  Biso   1.000  H 
  C178     1.0000 0.10394  0.22918  0.37166  Biso   1.000  C 
  H170     1.0000 0.03643  0.19368  0.39662  Biso   1.000  H 
  H171     1.0000 0.09576  0.26465  0.35314  Biso   1.000  H 
  H172     1.0000 0.10521  0.19807  0.34146  Biso   1.000  H 
  C179     1.0000 0.05218  0.29691  0.08962  Biso   1.000  C 
  H173     1.0000 0.03560  0.24259  0.03210  Biso   1.000  H 
  H174     1.0000 0.07170  0.21766  0.08278  Biso   1.000  H 
  C180     1.0000 0.00984  0.33431  0.08237  Biso   1.000  C 
  H175     1.0000 0.08364  0.30973  0.06615  Biso   1.000  H 
  H176     1.0000 0.06541  0.29795  0.12848  Biso   1.000  H 
  H177     1.0000 0.99614  0.33410  0.04358  Biso   1.000  H 
  H178     1.0000 0.97860  0.32602  0.10782  Biso   1.000  H 
  H179     1.0000 0.13983  0.23207  0.38904  Biso   1.000  H 
  H180     1.0000 0.02451  0.37176  0.09108  Biso   1.000  H 
  O87      1.0000 0.00000  0.07190  0.86740  Biso   1.000  O 
  C181     1.0000 0.00000  0.11720  0.88280  Biso   1.000  C 
  O88      1.0000 0.00000  0.13260  0.92810  Biso   1.000  O 
  C182     1.0000 0.00000  0.15650  0.84350  Biso   1.000  C 
  C183     1.0000 0.00000  0.14470  0.79420  Biso   1.000  C 
  C184     1.0000 0.00000  0.20580  0.85530  Biso   1.000  C 
  C185     1.0000 0.00000  0.17950  0.75800  Biso   1.000  C 
  H181     1.0000 0.00000  0.11140  0.78510  Biso   1.000  H 
  C186     1.0000 0.00000  0.24200  0.82050  Biso   1.000  C 
  O89      1.0000 0.00518  0.22290  0.90734  Biso   1.000  O 
  C187     1.0000 0.00000  0.23070  0.76930  Biso   1.000  C 
  C188     1.0000 0.00000  0.26930  0.73070  Biso   1.000  C 
  H182     1.0000 0.00000  0.16950  0.72490  Biso   1.000  H 
  C189     1.0000 0.00000  0.25800  0.67950  Biso   1.000  C 
  H183     1.0000 0.00000  0.27510  0.83050  Biso   1.000  H 
  C190     1.0000 0.00000  0.32050  0.74200  Biso   1.000  C 
  C191     1.0000 0.00000  0.29420  0.64470  Biso   1.000  C 
  H184     1.0000 0.00000  0.22490  0.66950  Biso   1.000  H 
  C192     1.0000 0.00000  0.35530  0.70580  Biso   1.000  C 
  H185     1.0000 0.00000  0.33050  0.77510  Biso   1.000  H 
  C193     1.0000 0.00000  0.34350  0.65650  Biso   1.000  C 
  C194     1.0000 0.00000  0.38280  0.61720  Biso   1.000  C 
  O90      1.0000 0.00535  0.27927  0.59132  Biso   1.000  O 
  H186     1.0000 0.00000  0.38860  0.71490  Biso   1.000  H 
  O91      1.0000 0.00000  0.36740  0.57190  Biso   1.000  O 
  O92      1.0000 0.00000  0.42810  0.63260  Biso   1.000  O 
  C195     1.0000 0.95884  0.26900  0.57057  Biso   1.000  C 
  C196     1.0000 0.96003  0.24251  0.92672  Biso   1.000  C 
  C197     1.0000 0.93443  0.21946  0.58915  Biso   1.000  C 
  H187     1.0000 0.96320  0.26700  0.53026  Biso   1.000  H 
  H188     1.0000 0.93235  0.29947  0.57822  Biso   1.000  H 
  H189     1.0000 0.91405  0.20071  0.55848  Biso   1.000  H 
  C198     1.0000 0.89606  0.22918  0.62834  Biso   1.000  C 
  H190     1.0000 0.96357  0.19368  0.60338  Biso   1.000  H 
  H191     1.0000 0.90424  0.26465  0.64686  Biso   1.000  H 
  H192     1.0000 0.89479  0.19807  0.65854  Biso   1.000  H 
  C199     1.0000 0.94782  0.29691  0.91038  Biso   1.000  C 
  H193     1.0000 0.96440  0.24259  0.96790  Biso   1.000  H 
  H194     1.0000 0.92830  0.21766  0.91722  Biso   1.000  H 
  C200     1.0000 0.99016  0.33431  0.91763  Biso   1.000  C 
  H195     1.0000 0.91636  0.30973  0.93385  Biso   1.000  H 
  H196     1.0000 0.93459  0.29795  0.87152  Biso   1.000  H 
  H197     1.0000 0.00386  0.33410  0.95642  Biso   1.000  H 
  H198     1.0000 0.02140  0.32602  0.89218  Biso   1.000  H 
  H199     1.0000 0.86017  0.23207  0.61096  Biso   1.000  H 
  H200     1.0000 0.97549  0.37176  0.90892  Biso   1.000  H 
  O93      1.0000 0.00000  0.92810  0.86740  Biso   1.000  O 
  C201     1.0000 0.00000  0.88280  0.88280  Biso   1.000  C 
  O94      1.0000 0.00000  0.86740  0.92810  Biso   1.000  O 
  C202     1.0000 0.00000  0.84350  0.84350  Biso   1.000  C 
  C203     1.0000 0.00000  0.85530  0.79420  Biso   1.000  C 
  C204     1.0000 0.00000  0.79420  0.85530  Biso   1.000  C 
  C205     1.0000 0.00000  0.82050  0.75800  Biso   1.000  C 
  H201     1.0000 0.00000  0.88860  0.78510  Biso   1.000  H 
  C206     1.0000 0.00000  0.75800  0.82050  Biso   1.000  C 
  O95      1.0000 0.99482  0.77710  0.90734  Biso   1.000  O 
  C207     1.0000 0.00000  0.76930  0.76930  Biso   1.000  C 
  C208     1.0000 0.00000  0.73070  0.73070  Biso   1.000  C 
  H202     1.0000 0.00000  0.83050  0.72490  Biso   1.000  H 
  C209     1.0000 0.00000  0.74200  0.67950  Biso   1.000  C 
  H203     1.0000 0.00000  0.72490  0.83050  Biso   1.000  H 
  C210     1.0000 0.00000  0.67950  0.74200  Biso   1.000  C 
  C211     1.0000 0.00000  0.70580  0.64470  Biso   1.000  C 
  H204     1.0000 0.00000  0.77510  0.66950  Biso   1.000  H 
  C212     1.0000 0.00000  0.64470  0.70580  Biso   1.000  C 
  H205     1.0000 0.00000  0.66950  0.77510  Biso   1.000  H 
  C213     1.0000 0.00000  0.65650  0.65650  Biso   1.000  C 
  C214     1.0000 0.00000  0.61720  0.61720  Biso   1.000  C 
  O96      1.0000 0.99465  0.72072  0.59132  Biso   1.000  O 
  H206     1.0000 0.00000  0.61140  0.71490  Biso   1.000  H 
  O97      1.0000 0.00000  0.63260  0.57190  Biso   1.000  O 
  O98      1.0000 0.00000  0.57190  0.63260  Biso   1.000  O 
  C215     1.0000 0.04116  0.73100  0.57057  Biso   1.000  C 
  C216     1.0000 0.03997  0.75749  0.92672  Biso   1.000  C 
  C217     1.0000 0.06557  0.78054  0.58915  Biso   1.000  C 
  H207     1.0000 0.03680  0.73300  0.53026  Biso   1.000  H 
  H208     1.0000 0.06765  0.70053  0.57822  Biso   1.000  H 
  H209     1.0000 0.08595  0.79929  0.55848  Biso   1.000  H 
  C218     1.0000 0.10394  0.77082  0.62834  Biso   1.000  C 
  H210     1.0000 0.03643  0.80632  0.60338  Biso   1.000  H 
  H211     1.0000 0.09576  0.73535  0.64686  Biso   1.000  H 
  H212     1.0000 0.10521  0.80193  0.65854  Biso   1.000  H 
  C219     1.0000 0.05218  0.70309  0.91038  Biso   1.000  C 
  H213     1.0000 0.03560  0.75741  0.96790  Biso   1.000  H 
  H214     1.0000 0.07170  0.78234  0.91722  Biso   1.000  H 
  C220     1.0000 0.00984  0.66569  0.91763  Biso   1.000  C 
  H215     1.0000 0.08364  0.69027  0.93385  Biso   1.000  H 
  H216     1.0000 0.06541  0.70204  0.87152  Biso   1.000  H 
  H217     1.0000 0.99614  0.66590  0.95642  Biso   1.000  H 
  H218     1.0000 0.97860  0.67398  0.89218  Biso   1.000  H 
  H219     1.0000 0.13983  0.76793  0.61096  Biso   1.000  H 
  H220     1.0000 0.02451  0.62823  0.90892  Biso   1.000  H 
  O99      1.0000 0.00000  0.92810  0.13260  Biso   1.000  O 
  C221     1.0000 0.00000  0.88280  0.11720  Biso   1.000  C 
  O100     1.0000 0.00000  0.86740  0.07190  Biso   1.000  O 
  C222     1.0000 0.00000  0.84350  0.15650  Biso   1.000  C 
  C223     1.0000 0.00000  0.85530  0.20580  Biso   1.000  C 
  C224     1.0000 0.00000  0.79420  0.14470  Biso   1.000  C 
  C225     1.0000 0.00000  0.82050  0.24200  Biso   1.000  C 
  H221     1.0000 0.00000  0.88860  0.21490  Biso   1.000  H 
  C226     1.0000 0.00000  0.75800  0.17950  Biso   1.000  C 
  O101     1.0000 0.00518  0.77710  0.09267  Biso   1.000  O 
  C227     1.0000 0.00000  0.76930  0.23070  Biso   1.000  C 
  C228     1.0000 0.00000  0.73070  0.26930  Biso   1.000  C 
  H222     1.0000 0.00000  0.83050  0.27510  Biso   1.000  H 
  C229     1.0000 0.00000  0.74200  0.32050  Biso   1.000  C 
  H223     1.0000 0.00000  0.72490  0.16950  Biso   1.000  H 
  C230     1.0000 0.00000  0.67950  0.25800  Biso   1.000  C 
  C231     1.0000 0.00000  0.70580  0.35530  Biso   1.000  C 
  H224     1.0000 0.00000  0.77510  0.33050  Biso   1.000  H 
  C232     1.0000 0.00000  0.64470  0.29420  Biso   1.000  C 
  H225     1.0000 0.00000  0.66950  0.22490  Biso   1.000  H 
  C233     1.0000 0.00000  0.65650  0.34350  Biso   1.000  C 
  C234     1.0000 0.00000  0.61720  0.38280  Biso   1.000  C 
  O102     1.0000 0.00535  0.72072  0.40868  Biso   1.000  O 
  H226     1.0000 0.00000  0.61140  0.28510  Biso   1.000  H 
  O103     1.0000 0.00000  0.63260  0.42810  Biso   1.000  O 
  O104     1.0000 0.00000  0.57190  0.36740  Biso   1.000  O 
  C235     1.0000 0.95884  0.73100  0.42943  Biso   1.000  C 
  C236     1.0000 0.96003  0.75749  0.07328  Biso   1.000  C 
  C237     1.0000 0.93443  0.78054  0.41085  Biso   1.000  C 
  H227     1.0000 0.96320  0.73300  0.46974  Biso   1.000  H 
  H228     1.0000 0.93235  0.70053  0.42178  Biso   1.000  H 
  H229     1.0000 0.91405  0.79929  0.44152  Biso   1.000  H 
  C238     1.0000 0.89606  0.77082  0.37166  Biso   1.000  C 
  H230     1.0000 0.96357  0.80632  0.39662  Biso   1.000  H 
  H231     1.0000 0.90424  0.73535  0.35314  Biso   1.000  H 
  H232     1.0000 0.89479  0.80193  0.34146  Biso   1.000  H 
  C239     1.0000 0.94782  0.70309  0.08962  Biso   1.000  C 
  H233     1.0000 0.96440  0.75741  0.03210  Biso   1.000  H 
  H234     1.0000 0.92830  0.78234  0.08278  Biso   1.000  H 
  C240     1.0000 0.99016  0.66569  0.08237  Biso   1.000  C 
  H235     1.0000 0.91636  0.69027  0.06615  Biso   1.000  H 
  H236     1.0000 0.93459  0.70204  0.12848  Biso   1.000  H 
  H237     1.0000 0.00386  0.66590  0.04358  Biso   1.000  H 
  H238     1.0000 0.02140  0.67398  0.10782  Biso   1.000  H 
  H239     1.0000 0.86017  0.76793  0.38904  Biso   1.000  H 
  H240     1.0000 0.97549  0.62823  0.09108  Biso   1.000  H 
  O105     1.0000 0.13260  0.50000  0.57190  Biso   1.000  O 
  C241     1.0000 0.11720  0.50000  0.61720  Biso   1.000  C 
  O106     1.0000 0.07190  0.50000  0.63260  Biso   1.000  O 
  C242     1.0000 0.15650  0.50000  0.65650  Biso   1.000  C 
  C243     1.0000 0.20580  0.50000  0.64470  Biso   1.000  C 
  C244     1.0000 0.14470  0.50000  0.70580  Biso   1.000  C 
  C245     1.0000 0.24200  0.50000  0.67950  Biso   1.000  C 
  H241     1.0000 0.21490  0.50000  0.61140  Biso   1.000  H 
  C246     1.0000 0.17950  0.50000  0.74200  Biso   1.000  C 
  O107     1.0000 0.09308  0.49454  0.72144  Biso   1.000  O 
  C247     1.0000 0.23070  0.50000  0.73070  Biso   1.000  C 
  C248     1.0000 0.26930  0.50000  0.76930  Biso   1.000  C 
  H242     1.0000 0.27510  0.50000  0.66950  Biso   1.000  H 
  C249     1.0000 0.32050  0.50000  0.75800  Biso   1.000  C 
  H243     1.0000 0.16950  0.50000  0.77510  Biso   1.000  H 
  C250     1.0000 0.25800  0.50000  0.82050  Biso   1.000  C 
  C251     1.0000 0.35530  0.50000  0.79420  Biso   1.000  C 
  H244     1.0000 0.33050  0.50000  0.72490  Biso   1.000  H 
  C252     1.0000 0.29420  0.50000  0.85530  Biso   1.000  C 
  H245     1.0000 0.22490  0.50000  0.83050  Biso   1.000  H 
  C253     1.0000 0.34350  0.50000  0.84350  Biso   1.000  C 
  C254     1.0000 0.38280  0.50000  0.88280  Biso   1.000  C 
  O108     1.0000 0.40575  0.48916  0.77745  Biso   1.000  O 
  H246     1.0000 0.28510  0.50000  0.88860  Biso   1.000  H 
  O109     1.0000 0.42810  0.50000  0.86740  Biso   1.000  O 
  O110     1.0000 0.36740  0.50000  0.92810  Biso   1.000  O 
  C255     1.0000 0.42618  0.53149  0.75041  Biso   1.000  C 
  C256     1.0000 0.07425  0.54229  0.73298  Biso   1.000  C 
  C257     1.0000 0.44182  0.51459  0.69763  Biso   1.000  C 
  H247     1.0000 0.45859  0.54636  0.77043  Biso   1.000  H 
  H248     1.0000 0.40042  0.56319  0.74455  Biso   1.000  H 
  H249     1.0000 0.47718  0.53515  0.69036  Biso   1.000  H 
  C258     1.0000 0.40996  0.53140  0.65504  Biso   1.000  C 
  H250     1.0000 0.44477  0.47371  0.69757  Biso   1.000  H 
  H251     1.0000 0.40831  0.57346  0.65743  Biso   1.000  H 
  H252     1.0000 0.37161  0.51505  0.65484  Biso   1.000  H 
  C259     1.0000 0.08742  0.55840  0.78664  Biso   1.000  C 
  H253     1.0000 0.03315  0.53913  0.73108  Biso   1.000  H 
  H254     1.0000 0.08623  0.57119  0.70547  Biso   1.000  H 
  C260     1.0000 0.07572  0.51884  0.82594  Biso   1.000  C 
  H255     1.0000 0.06483  0.59173  0.79629  Biso   1.000  H 
  H256     1.0000 0.12700  0.56904  0.78864  Biso   1.000  H 
  H257     1.0000 0.03523  0.51843  0.83290  Biso   1.000  H 
  H258     1.0000 0.08810  0.48147  0.81395  Biso   1.000  H 
  H259     1.0000 0.42858  0.51987  0.62036  Biso   1.000  H 
  H260     1.0000 0.09490  0.52856  0.86106  Biso   1.000  H 
  O111     1.0000 0.86740  0.50000  0.57190  Biso   1.000  O 
  C261     1.0000 0.88280  0.50000  0.61720  Biso   1.000  C 
  O112     1.0000 0.92810  0.50000  0.63260  Biso   1.000  O 
  C262     1.0000 0.84350  0.50000  0.65650  Biso   1.000  C 
  C263     1.0000 0.79420  0.50000  0.64470  Biso   1.000  C 
  C264     1.0000 0.85530  0.50000  0.70580  Biso   1.000  C 
  C265     1.0000 0.75800  0.50000  0.67950  Biso   1.000  C 
  H261     1.0000 0.78510  0.50000  0.61140  Biso   1.000  H 
  C266     1.0000 0.82050  0.50000  0.74200  Biso   1.000  C 
  O113     1.0000 0.90692  0.50546  0.72144  Biso   1.000  O 
  C267     1.0000 0.76930  0.50000  0.73070  Biso   1.000  C 
  C268     1.0000 0.73070  0.50000  0.76930  Biso   1.000  C 
  H262     1.0000 0.72490  0.50000  0.66950  Biso   1.000  H 
  C269     1.0000 0.67950  0.50000  0.75800  Biso   1.000  C 
  H263     1.0000 0.83050  0.50000  0.77510  Biso   1.000  H 
  C270     1.0000 0.74200  0.50000  0.82050  Biso   1.000  C 
  C271     1.0000 0.64470  0.50000  0.79420  Biso   1.000  C 
  H264     1.0000 0.66950  0.50000  0.72490  Biso   1.000  H 
  C272     1.0000 0.70580  0.50000  0.85530  Biso   1.000  C 
  H265     1.0000 0.77510  0.50000  0.83050  Biso   1.000  H 
  C273     1.0000 0.65650  0.50000  0.84350  Biso   1.000  C 
  C274     1.0000 0.61720  0.50000  0.88280  Biso   1.000  C 
  O114     1.0000 0.59425  0.51084  0.77745  Biso   1.000  O 
  H266     1.0000 0.71490  0.50000  0.88860  Biso   1.000  H 
  O115     1.0000 0.57190  0.50000  0.86740  Biso   1.000  O 
  O116     1.0000 0.63260  0.50000  0.92810  Biso   1.000  O 
  C275     1.0000 0.57382  0.46851  0.75041  Biso   1.000  C 
  C276     1.0000 0.92575  0.45771  0.73298  Biso   1.000  C 
  C277     1.0000 0.55818  0.48541  0.69763  Biso   1.000  C 
  H267     1.0000 0.54141  0.45364  0.77043  Biso   1.000  H 
  H268     1.0000 0.59958  0.43681  0.74455  Biso   1.000  H 
  H269     1.0000 0.52282  0.46485  0.69036  Biso   1.000  H 
  C278     1.0000 0.59004  0.46860  0.65504  Biso   1.000  C 
  H270     1.0000 0.55523  0.52629  0.69757  Biso   1.000  H 
  H271     1.0000 0.59169  0.42654  0.65743  Biso   1.000  H 
  H272     1.0000 0.62839  0.48495  0.65484  Biso   1.000  H 
  C279     1.0000 0.91258  0.44160  0.78664  Biso   1.000  C 
  H273     1.0000 0.96685  0.46087  0.73108  Biso   1.000  H 
  H274     1.0000 0.91377  0.42881  0.70547  Biso   1.000  H 
  C280     1.0000 0.92429  0.48116  0.82594  Biso   1.000  C 
  H275     1.0000 0.93517  0.40827  0.79629  Biso   1.000  H 
  H276     1.0000 0.87300  0.43096  0.78864  Biso   1.000  H 
  H277     1.0000 0.96477  0.48157  0.83290  Biso   1.000  H 
  H278     1.0000 0.91190  0.51853  0.81395  Biso   1.000  H 
  H279     1.0000 0.57142  0.48013  0.62036  Biso   1.000  H 
  H280     1.0000 0.90510  0.47144  0.86106  Biso   1.000  H 
  O117     1.0000 0.86740  0.50000  0.42810  Biso   1.000  O 
  C281     1.0000 0.88280  0.50000  0.38280  Biso   1.000  C 
  O118     1.0000 0.92810  0.50000  0.36740  Biso   1.000  O 
  C282     1.0000 0.84350  0.50000  0.34350  Biso   1.000  C 
  C283     1.0000 0.79420  0.50000  0.35530  Biso   1.000  C 
  C284     1.0000 0.85530  0.50000  0.29420  Biso   1.000  C 
  C285     1.0000 0.75800  0.50000  0.32050  Biso   1.000  C 
  H281     1.0000 0.78510  0.50000  0.38860  Biso   1.000  H 
  C286     1.0000 0.82050  0.50000  0.25800  Biso   1.000  C 
  O119     1.0000 0.90692  0.49454  0.27856  Biso   1.000  O 
  C287     1.0000 0.76930  0.50000  0.26930  Biso   1.000  C 
  C288     1.0000 0.73070  0.50000  0.23070  Biso   1.000  C 
  H282     1.0000 0.72490  0.50000  0.33050  Biso   1.000  H 
  C289     1.0000 0.67950  0.50000  0.24200  Biso   1.000  C 
  H283     1.0000 0.83050  0.50000  0.22490  Biso   1.000  H 
  C290     1.0000 0.74200  0.50000  0.17950  Biso   1.000  C 
  C291     1.0000 0.64470  0.50000  0.20580  Biso   1.000  C 
  H284     1.0000 0.66950  0.50000  0.27510  Biso   1.000  H 
  C292     1.0000 0.70580  0.50000  0.14470  Biso   1.000  C 
  H285     1.0000 0.77510  0.50000  0.16950  Biso   1.000  H 
  C293     1.0000 0.65650  0.50000  0.15650  Biso   1.000  C 
  C294     1.0000 0.61720  0.50000  0.11720  Biso   1.000  C 
  O120     1.0000 0.59425  0.48916  0.22255  Biso   1.000  O 
  H286     1.0000 0.71490  0.50000  0.11140  Biso   1.000  H 
  O121     1.0000 0.57190  0.50000  0.13260  Biso   1.000  O 
  O122     1.0000 0.63260  0.50000  0.07190  Biso   1.000  O 
  C295     1.0000 0.57382  0.53149  0.24959  Biso   1.000  C 
  C296     1.0000 0.92575  0.54229  0.26702  Biso   1.000  C 
  C297     1.0000 0.55818  0.51459  0.30237  Biso   1.000  C 
  H287     1.0000 0.54141  0.54636  0.22957  Biso   1.000  H 
  H288     1.0000 0.59958  0.56319  0.25545  Biso   1.000  H 
  H289     1.0000 0.52282  0.53515  0.30964  Biso   1.000  H 
  C298     1.0000 0.59004  0.53140  0.34496  Biso   1.000  C 
  H290     1.0000 0.55523  0.47371  0.30243  Biso   1.000  H 
  H291     1.0000 0.59169  0.57346  0.34257  Biso   1.000  H 
  H292     1.0000 0.62839  0.51505  0.34515  Biso   1.000  H 
  C299     1.0000 0.91258  0.55840  0.21336  Biso   1.000  C 
  H293     1.0000 0.96685  0.53913  0.26892  Biso   1.000  H 
  H294     1.0000 0.91377  0.57119  0.29453  Biso   1.000  H 
  C300     1.0000 0.92429  0.51884  0.17406  Biso   1.000  C 
  H295     1.0000 0.93517  0.59173  0.20371  Biso   1.000  H 
  H296     1.0000 0.87300  0.56904  0.21136  Biso   1.000  H 
  H297     1.0000 0.96477  0.51843  0.16710  Biso   1.000  H 
  H298     1.0000 0.91190  0.48147  0.18605  Biso   1.000  H 
  H299     1.0000 0.57142  0.51987  0.37964  Biso   1.000  H 
  H300     1.0000 0.90510  0.52856  0.13893  Biso   1.000  H 
  O123     1.0000 0.13260  0.50000  0.42810  Biso   1.000  O 
  C301     1.0000 0.11720  0.50000  0.38280  Biso   1.000  C 
  O124     1.0000 0.07190  0.50000  0.36740  Biso   1.000  O 
  C302     1.0000 0.15650  0.50000  0.34350  Biso   1.000  C 
  C303     1.0000 0.20580  0.50000  0.35530  Biso   1.000  C 
  C304     1.0000 0.14470  0.50000  0.29420  Biso   1.000  C 
  C305     1.0000 0.24200  0.50000  0.32050  Biso   1.000  C 
  H301     1.0000 0.21490  0.50000  0.38860  Biso   1.000  H 
  C306     1.0000 0.17950  0.50000  0.25800  Biso   1.000  C 
  O125     1.0000 0.09308  0.50546  0.27856  Biso   1.000  O 
  C307     1.0000 0.23070  0.50000  0.26930  Biso   1.000  C 
  C308     1.0000 0.26930  0.50000  0.23070  Biso   1.000  C 
  H302     1.0000 0.27510  0.50000  0.33050  Biso   1.000  H 
  C309     1.0000 0.32050  0.50000  0.24200  Biso   1.000  C 
  H303     1.0000 0.16950  0.50000  0.22490  Biso   1.000  H 
  C310     1.0000 0.25800  0.50000  0.17950  Biso   1.000  C 
  C311     1.0000 0.35530  0.50000  0.20580  Biso   1.000  C 
  H304     1.0000 0.33050  0.50000  0.27510  Biso   1.000  H 
  C312     1.0000 0.29420  0.50000  0.14470  Biso   1.000  C 
  H305     1.0000 0.22490  0.50000  0.16950  Biso   1.000  H 
  C313     1.0000 0.34350  0.50000  0.15650  Biso   1.000  C 
  C314     1.0000 0.38280  0.50000  0.11720  Biso   1.000  C 
  O126     1.0000 0.40575  0.51084  0.22255  Biso   1.000  O 
  H306     1.0000 0.28510  0.50000  0.11140  Biso   1.000  H 
  O127     1.0000 0.42810  0.50000  0.13260  Biso   1.000  O 
  O128     1.0000 0.36740  0.50000  0.07190  Biso   1.000  O 
  C315     1.0000 0.42618  0.46851  0.24959  Biso   1.000  C 
  C316     1.0000 0.07425  0.45771  0.26702  Biso   1.000  C 
  C317     1.0000 0.44182  0.48541  0.30237  Biso   1.000  C 
  H307     1.0000 0.45859  0.45364  0.22957  Biso   1.000  H 
  H308     1.0000 0.40042  0.43681  0.25545  Biso   1.000  H 
  H309     1.0000 0.47718  0.46485  0.30964  Biso   1.000  H 
  C318     1.0000 0.40996  0.46860  0.34496  Biso   1.000  C 
  H310     1.0000 0.44477  0.52629  0.30243  Biso   1.000  H 
  H311     1.0000 0.40831  0.42654  0.34257  Biso   1.000  H 
  H312     1.0000 0.37161  0.48495  0.34515  Biso   1.000  H 
  C319     1.0000 0.08742  0.44160  0.21336  Biso   1.000  C 
  H313     1.0000 0.03315  0.46087  0.26892  Biso   1.000  H 
  H314     1.0000 0.08623  0.42881  0.29453  Biso   1.000  H 
  C320     1.0000 0.07572  0.48116  0.17406  Biso   1.000  C 
  H315     1.0000 0.06483  0.40827  0.20371  Biso   1.000  H 
  H316     1.0000 0.12700  0.43096  0.21136  Biso   1.000  H 
  H317     1.0000 0.03523  0.48157  0.16710  Biso   1.000  H 
  H318     1.0000 0.08810  0.51853  0.18605  Biso   1.000  H 
  H319     1.0000 0.42858  0.48013  0.37964  Biso   1.000  H 
  H320     1.0000 0.09490  0.47144  0.13893  Biso   1.000  H 
  O129     1.0000 0.07190  0.63260  0.50000  Biso   1.000  O 
  C321     1.0000 0.11720  0.61720  0.50000  Biso   1.000  C 
  O130     1.0000 0.13260  0.57190  0.50000  Biso   1.000  O 
  C322     1.0000 0.15650  0.65650  0.50000  Biso   1.000  C 
  C323     1.0000 0.14470  0.70580  0.50000  Biso   1.000  C 
  C324     1.0000 0.20580  0.64470  0.50000  Biso   1.000  C 
  C325     1.0000 0.17950  0.74200  0.50000  Biso   1.000  C 
  H321     1.0000 0.11140  0.71490  0.50000  Biso   1.000  H 
  C326     1.0000 0.24200  0.67950  0.50000  Biso   1.000  C 
  O131     1.0000 0.22287  0.59269  0.49449  Biso   1.000  O 
  C327     1.0000 0.23070  0.73070  0.50000  Biso   1.000  C 
  C328     1.0000 0.26930  0.76930  0.50000  Biso   1.000  C 
  H322     1.0000 0.16950  0.77510  0.50000  Biso   1.000  H 
  C329     1.0000 0.25800  0.82050  0.50000  Biso   1.000  C 
  H323     1.0000 0.27510  0.66950  0.50000  Biso   1.000  H 
  C330     1.0000 0.32050  0.75800  0.50000  Biso   1.000  C 
  C331     1.0000 0.29420  0.85530  0.50000  Biso   1.000  C 
  H324     1.0000 0.22490  0.83050  0.50000  Biso   1.000  H 
  C332     1.0000 0.35530  0.79420  0.50000  Biso   1.000  C 
  H325     1.0000 0.33050  0.72490  0.50000  Biso   1.000  H 
  C333     1.0000 0.34350  0.84350  0.50000  Biso   1.000  C 
  C334     1.0000 0.38280  0.88280  0.50000  Biso   1.000  C 
  O132     1.0000 0.28273  0.90194  0.47428  Biso   1.000  O 
  H326     1.0000 0.38860  0.78510  0.50000  Biso   1.000  H 
  O133     1.0000 0.36740  0.92810  0.50000  Biso   1.000  O 
  O134     1.0000 0.42810  0.86740  0.50000  Biso   1.000  O 
  C335     1.0000 0.24455  0.92881  0.49376  Biso   1.000  C 
  C336     1.0000 0.24268  0.57304  0.53945  Biso   1.000  C 
  C337     1.0000 0.20116  0.92031  0.45720  Biso   1.000  C 
  H327     1.0000 0.25627  0.96675  0.48778  Biso   1.000  H 
  H328     1.0000 0.23738  0.92382  0.53456  Biso   1.000  H 
  H329     1.0000 0.21340  0.94126  0.42264  Biso   1.000  H 
  C338     1.0000 0.15231  0.93981  0.47794  Biso   1.000  C 
  H330     1.0000 0.19722  0.88082  0.44474  Biso   1.000  H 
  H331     1.0000 0.12423  0.90986  0.47891  Biso   1.000  H 
  H332     1.0000 0.13710  0.97095  0.45216  Biso   1.000  H 
  C339     1.0000 0.29740  0.58883  0.55103  Biso   1.000  C 
  H333     1.0000 0.24222  0.53185  0.53515  Biso   1.000  H 
  H334     1.0000 0.21828  0.58284  0.57144  Biso   1.000  H 
  C340     1.0000 0.33427  0.58177  0.50820  Biso   1.000  C 
  H335     1.0000 0.31048  0.56501  0.58213  Biso   1.000  H 
  H336     1.0000 0.29882  0.62757  0.56457  Biso   1.000  H 
  H337     1.0000 0.33216  0.54365  0.49288  Biso   1.000  H 
  H338     1.0000 0.32713  0.60894  0.47816  Biso   1.000  H 
  H339     1.0000 0.15579  0.95464  0.51433  Biso   1.000  H 
  H340     1.0000 0.37217  0.58801  0.52304  Biso   1.000  H 
  O135     1.0000 0.07190  0.36740  0.50000  Biso   1.000  O 
  C341     1.0000 0.11720  0.38280  0.50000  Biso   1.000  C 
  O136     1.0000 0.13260  0.42810  0.50000  Biso   1.000  O 
  C342     1.0000 0.15650  0.34350  0.50000  Biso   1.000  C 
  C343     1.0000 0.14470  0.29420  0.50000  Biso   1.000  C 
  C344     1.0000 0.20580  0.35530  0.50000  Biso   1.000  C 
  C345     1.0000 0.17950  0.25800  0.50000  Biso   1.000  C 
  H341     1.0000 0.11140  0.28510  0.50000  Biso   1.000  H 
  C346     1.0000 0.24200  0.32050  0.50000  Biso   1.000  C 
  O137     1.0000 0.22287  0.40731  0.50551  Biso   1.000  O 
  C347     1.0000 0.23070  0.26930  0.50000  Biso   1.000  C 
  C348     1.0000 0.26930  0.23070  0.50000  Biso   1.000  C 
  H342     1.0000 0.16950  0.22490  0.50000  Biso   1.000  H 
  C349     1.0000 0.25800  0.17950  0.50000  Biso   1.000  C 
  H343     1.0000 0.27510  0.33050  0.50000  Biso   1.000  H 
  C350     1.0000 0.32050  0.24200  0.50000  Biso   1.000  C 
  C351     1.0000 0.29420  0.14470  0.50000  Biso   1.000  C 
  H344     1.0000 0.22490  0.16950  0.50000  Biso   1.000  H 
  C352     1.0000 0.35530  0.20580  0.50000  Biso   1.000  C 
  H345     1.0000 0.33050  0.27510  0.50000  Biso   1.000  H 
  C353     1.0000 0.34350  0.15650  0.50000  Biso   1.000  C 
  C354     1.0000 0.38280  0.11720  0.50000  Biso   1.000  C 
  O138     1.0000 0.28273  0.09806  0.52572  Biso   1.000  O 
  H346     1.0000 0.38860  0.21490  0.50000  Biso   1.000  H 
  O139     1.0000 0.36740  0.07190  0.50000  Biso   1.000  O 
  O140     1.0000 0.42810  0.13260  0.50000  Biso   1.000  O 
  C355     1.0000 0.24455  0.07119  0.50624  Biso   1.000  C 
  C356     1.0000 0.24268  0.42696  0.46055  Biso   1.000  C 
  C357     1.0000 0.20116  0.07969  0.54280  Biso   1.000  C 
  H347     1.0000 0.25627  0.03325  0.51222  Biso   1.000  H 
  H348     1.0000 0.23738  0.07618  0.46544  Biso   1.000  H 
  H349     1.0000 0.21340  0.05874  0.57736  Biso   1.000  H 
  C358     1.0000 0.15231  0.06019  0.52206  Biso   1.000  C 
  H350     1.0000 0.19722  0.11918  0.55526  Biso   1.000  H 
  H351     1.0000 0.12423  0.09014  0.52109  Biso   1.000  H 
  H352     1.0000 0.13710  0.02905  0.54784  Biso   1.000  H 
  C359     1.0000 0.29740  0.41117  0.44897  Biso   1.000  C 
  H353     1.0000 0.24222  0.46815  0.46485  Biso   1.000  H 
  H354     1.0000 0.21828  0.41716  0.42856  Biso   1.000  H 
  C360     1.0000 0.33427  0.41823  0.49180  Biso   1.000  C 
  H355     1.0000 0.31048  0.43499  0.41787  Biso   1.000  H 
  H356     1.0000 0.29882  0.37243  0.43543  Biso   1.000  H 
  H357     1.0000 0.33216  0.45635  0.50712  Biso   1.000  H 
  H358     1.0000 0.32713  0.39106  0.52184  Biso   1.000  H 
  H359     1.0000 0.15579  0.04536  0.48567  Biso   1.000  H 
  H360     1.0000 0.37217  0.41199  0.47696  Biso   1.000  H 
  O141     1.0000 0.92810  0.36740  0.50000  Biso   1.000  O 
  C361     1.0000 0.88280  0.38280  0.50000  Biso   1.000  C 
  O142     1.0000 0.86740  0.42810  0.50000  Biso   1.000  O 
  C362     1.0000 0.84350  0.34350  0.50000  Biso   1.000  C 
  C363     1.0000 0.85530  0.29420  0.50000  Biso   1.000  C 
  C364     1.0000 0.79420  0.35530  0.50000  Biso   1.000  C 
  C365     1.0000 0.82050  0.25800  0.50000  Biso   1.000  C 
  H361     1.0000 0.88860  0.28510  0.50000  Biso   1.000  H 
  C366     1.0000 0.75800  0.32050  0.50000  Biso   1.000  C 
  O143     1.0000 0.77713  0.40731  0.49449  Biso   1.000  O 
  C367     1.0000 0.76930  0.26930  0.50000  Biso   1.000  C 
  C368     1.0000 0.73070  0.23070  0.50000  Biso   1.000  C 
  H362     1.0000 0.83050  0.22490  0.50000  Biso   1.000  H 
  C369     1.0000 0.74200  0.17950  0.50000  Biso   1.000  C 
  H363     1.0000 0.72490  0.33050  0.50000  Biso   1.000  H 
  C370     1.0000 0.67950  0.24200  0.50000  Biso   1.000  C 
  C371     1.0000 0.70580  0.14470  0.50000  Biso   1.000  C 
  H364     1.0000 0.77510  0.16950  0.50000  Biso   1.000  H 
  C372     1.0000 0.64470  0.20580  0.50000  Biso   1.000  C 
  H365     1.0000 0.66950  0.27510  0.50000  Biso   1.000  H 
  C373     1.0000 0.65650  0.15650  0.50000  Biso   1.000  C 
  C374     1.0000 0.61720  0.11720  0.50000  Biso   1.000  C 
  O144     1.0000 0.71727  0.09806  0.47428  Biso   1.000  O 
  H366     1.0000 0.61140  0.21490  0.50000  Biso   1.000  H 
  O145     1.0000 0.63260  0.07190  0.50000  Biso   1.000  O 
  O146     1.0000 0.57190  0.13260  0.50000  Biso   1.000  O 
  C375     1.0000 0.75545  0.07119  0.49376  Biso   1.000  C 
  C376     1.0000 0.75732  0.42696  0.53945  Biso   1.000  C 
  C377     1.0000 0.79884  0.07969  0.45720  Biso   1.000  C 
  H367     1.0000 0.74373  0.03325  0.48778  Biso   1.000  H 
  H368     1.0000 0.76262  0.07618  0.53456  Biso   1.000  H 
  H369     1.0000 0.78660  0.05874  0.42264  Biso   1.000  H 
  C378     1.0000 0.84769  0.06019  0.47794  Biso   1.000  C 
  H370     1.0000 0.80278  0.11918  0.44474  Biso   1.000  H 
  H371     1.0000 0.87577  0.09014  0.47891  Biso   1.000  H 
  H372     1.0000 0.86290  0.02905  0.45216  Biso   1.000  H 
  C379     1.0000 0.70260  0.41117  0.55103  Biso   1.000  C 
  H373     1.0000 0.75778  0.46815  0.53515  Biso   1.000  H 
  H374     1.0000 0.78172  0.41716  0.57144  Biso   1.000  H 
  C380     1.0000 0.66573  0.41823  0.50820  Biso   1.000  C 
  H375     1.0000 0.68952  0.43499  0.58213  Biso   1.000  H 
  H376     1.0000 0.70117  0.37243  0.56457  Biso   1.000  H 
  H377     1.0000 0.66784  0.45635  0.49288  Biso   1.000  H 
  H378     1.0000 0.67287  0.39106  0.47816  Biso   1.000  H 
  H379     1.0000 0.84421  0.04536  0.51433  Biso   1.000  H 
  H380     1.0000 0.62783  0.41199  0.52304  Biso   1.000  H 
  O147     1.0000 0.92810  0.63260  0.50000  Biso   1.000  O 
  C381     1.0000 0.88280  0.61720  0.50000  Biso   1.000  C 
  O148     1.0000 0.86740  0.57190  0.50000  Biso   1.000  O 
  C382     1.0000 0.84350  0.65650  0.50000  Biso   1.000  C 
  C383     1.0000 0.85530  0.70580  0.50000  Biso   1.000  C 
  C384     1.0000 0.79420  0.64470  0.50000  Biso   1.000  C 
  C385     1.0000 0.82050  0.74200  0.50000  Biso   1.000  C 
  H381     1.0000 0.88860  0.71490  0.50000  Biso   1.000  H 
  C386     1.0000 0.75800  0.67950  0.50000  Biso   1.000  C 
  O149     1.0000 0.77713  0.59269  0.50551  Biso   1.000  O 
  C387     1.0000 0.76930  0.73070  0.50000  Biso   1.000  C 
  C388     1.0000 0.73070  0.76930  0.50000  Biso   1.000  C 
  H382     1.0000 0.83050  0.77510  0.50000  Biso   1.000  H 
  C389     1.0000 0.74200  0.82050  0.50000  Biso   1.000  C 
  H383     1.0000 0.72490  0.66950  0.50000  Biso   1.000  H 
  C390     1.0000 0.67950  0.75800  0.50000  Biso   1.000  C 
  C391     1.0000 0.70580  0.85530  0.50000  Biso   1.000  C 
  H384     1.0000 0.77510  0.83050  0.50000  Biso   1.000  H 
  C392     1.0000 0.64470  0.79420  0.50000  Biso   1.000  C 
  H385     1.0000 0.66950  0.72490  0.50000  Biso   1.000  H 
  C393     1.0000 0.65650  0.84350  0.50000  Biso   1.000  C 
  C394     1.0000 0.61720  0.88280  0.50000  Biso   1.000  C 
  O150     1.0000 0.71727  0.90194  0.52572  Biso   1.000  O 
  H386     1.0000 0.61140  0.78510  0.50000  Biso   1.000  H 
  O151     1.0000 0.63260  0.92810  0.50000  Biso   1.000  O 
  O152     1.0000 0.57190  0.86740  0.50000  Biso   1.000  O 
  C395     1.0000 0.75545  0.92881  0.50624  Biso   1.000  C 
  C396     1.0000 0.75732  0.57304  0.46055  Biso   1.000  C 
  C397     1.0000 0.79884  0.92031  0.54280  Biso   1.000  C 
  H387     1.0000 0.74373  0.96675  0.51222  Biso   1.000  H 
  H388     1.0000 0.76262  0.92382  0.46544  Biso   1.000  H 
  H389     1.0000 0.78660  0.94126  0.57736  Biso   1.000  H 
  C398     1.0000 0.84769  0.93981  0.52206  Biso   1.000  C 
  H390     1.0000 0.80278  0.88082  0.55526  Biso   1.000  H 
  H391     1.0000 0.87577  0.90986  0.52109  Biso   1.000  H 
  H392     1.0000 0.86290  0.97095  0.54784  Biso   1.000  H 
  C399     1.0000 0.70260  0.58883  0.44897  Biso   1.000  C 
  H393     1.0000 0.75778  0.53185  0.46485  Biso   1.000  H 
  H394     1.0000 0.78172  0.58284  0.42856  Biso   1.000  H 
  C400     1.0000 0.66573  0.58177  0.49180  Biso   1.000  C 
  H395     1.0000 0.68952  0.56501  0.41787  Biso   1.000  H 
  H396     1.0000 0.70117  0.62757  0.43543  Biso   1.000  H 
  H397     1.0000 0.66784  0.54365  0.50712  Biso   1.000  H 
  H398     1.0000 0.67287  0.60894  0.52184  Biso   1.000  H 
  H399     1.0000 0.84421  0.95464  0.48567  Biso   1.000  H 
  H400     1.0000 0.62783  0.58801  0.47696  Biso   1.000  H 
  O153     1.0000 0.50000  0.07190  0.63260  Biso   1.000  O 
  C401     1.0000 0.50000  0.11720  0.61720  Biso   1.000  C 
  O154     1.0000 0.50000  0.13260  0.57190  Biso   1.000  O 
  C402     1.0000 0.50000  0.15650  0.65650  Biso   1.000  C 
  C403     1.0000 0.50000  0.14470  0.70580  Biso   1.000  C 
  C404     1.0000 0.50000  0.20580  0.64470  Biso   1.000  C 
  C405     1.0000 0.50000  0.17950  0.74200  Biso   1.000  C 
  H401     1.0000 0.50000  0.11140  0.71490  Biso   1.000  H 
  C406     1.0000 0.50000  0.24200  0.67950  Biso   1.000  C 
  O155     1.0000 0.49417  0.22150  0.59311  Biso   1.000  O 
  C407     1.0000 0.50000  0.23070  0.73070  Biso   1.000  C 
  C408     1.0000 0.50000  0.26930  0.76930  Biso   1.000  C 
  H402     1.0000 0.50000  0.16950  0.77510  Biso   1.000  H 
  C409     1.0000 0.50000  0.25800  0.82050  Biso   1.000  C 
  H403     1.0000 0.50000  0.27510  0.66950  Biso   1.000  H 
  C410     1.0000 0.50000  0.32050  0.75800  Biso   1.000  C 
  C411     1.0000 0.50000  0.29420  0.85530  Biso   1.000  C 
  H404     1.0000 0.50000  0.22490  0.83050  Biso   1.000  H 
  C412     1.0000 0.50000  0.35530  0.79420  Biso   1.000  C 
  H405     1.0000 0.50000  0.33050  0.72490  Biso   1.000  H 
  C413     1.0000 0.50000  0.34350  0.84350  Biso   1.000  C 
  C414     1.0000 0.50000  0.38280  0.88280  Biso   1.000  C 
  O156     1.0000 0.47945  0.28231  0.90564  Biso   1.000  O 
  H406     1.0000 0.50000  0.38860  0.78510  Biso   1.000  H 
  O157     1.0000 0.50000  0.36740  0.92810  Biso   1.000  O 
  O158     1.0000 0.50000  0.42810  0.86740  Biso   1.000  O 
  C415     1.0000 0.49087  0.23515  0.92496  Biso   1.000  C 
  C416     1.0000 0.54179  0.23334  0.57407  Biso   1.000  C 
  C417     1.0000 0.44935  0.19581  0.91255  Biso   1.000  C 
  H407     1.0000 0.48769  0.23955  0.96485  Biso   1.000  H 
  H408     1.0000 0.52992  0.22314  0.91641  Biso   1.000  H 
  H409     1.0000 0.42051  0.19464  0.94389  Biso   1.000  H 
  C418     1.0000 0.47516  0.14584  0.90750  Biso   1.000  C 
  H410     1.0000 0.43057  0.20640  0.87761  Biso   1.000  H 
  H411     1.0000 0.45220  0.12029  0.88456  Biso   1.000  H 
  H412     1.0000 0.48125  0.12777  0.94503  Biso   1.000  H 
  C419     1.0000 0.55760  0.28723  0.58665  Biso   1.000  C 
  H413     1.0000 0.53855  0.23108  0.53299  Biso   1.000  H 
  H414     1.0000 0.57096  0.20617  0.58621  Biso   1.000  H 
  C420     1.0000 0.51740  0.32615  0.57572  Biso   1.000  C 
  H415     1.0000 0.59045  0.29717  0.56347  Biso   1.000  H 
  H416     1.0000 0.56889  0.28933  0.62607  Biso   1.000  H 
  H417     1.0000 0.51920  0.33685  0.53600  Biso   1.000  H 
  H418     1.0000 0.47964  0.31212  0.58446  Biso   1.000  H 
  H419     1.0000 0.51241  0.15032  0.89125  Biso   1.000  H 
  H420     1.0000 0.52467  0.35963  0.59860  Biso   1.000  H 
  O159     1.0000 0.50000  0.07190  0.36740  Biso   1.000  O 
  C421     1.0000 0.50000  0.11720  0.38280  Biso   1.000  C 
  O160     1.0000 0.50000  0.13260  0.42810  Biso   1.000  O 
  C422     1.0000 0.50000  0.15650  0.34350  Biso   1.000  C 
  C423     1.0000 0.50000  0.14470  0.29420  Biso   1.000  C 
  C424     1.0000 0.50000  0.20580  0.35530  Biso   1.000  C 
  C425     1.0000 0.50000  0.17950  0.25800  Biso   1.000  C 
  H421     1.0000 0.50000  0.11140  0.28510  Biso   1.000  H 
  C426     1.0000 0.50000  0.24200  0.32050  Biso   1.000  C 
  O161     1.0000 0.50583  0.22150  0.40689  Biso   1.000  O 
  C427     1.0000 0.50000  0.23070  0.26930  Biso   1.000  C 
  C428     1.0000 0.50000  0.26930  0.23070  Biso   1.000  C 
  H422     1.0000 0.50000  0.16950  0.22490  Biso   1.000  H 
  C429     1.0000 0.50000  0.25800  0.17950  Biso   1.000  C 
  H423     1.0000 0.50000  0.27510  0.33050  Biso   1.000  H 
  C430     1.0000 0.50000  0.32050  0.24200  Biso   1.000  C 
  C431     1.0000 0.50000  0.29420  0.14470  Biso   1.000  C 
  H424     1.0000 0.50000  0.22490  0.16950  Biso   1.000  H 
  C432     1.0000 0.50000  0.35530  0.20580  Biso   1.000  C 
  H425     1.0000 0.50000  0.33050  0.27510  Biso   1.000  H 
  C433     1.0000 0.50000  0.34350  0.15650  Biso   1.000  C 
  C434     1.0000 0.50000  0.38280  0.11720  Biso   1.000  C 
  O162     1.0000 0.52055  0.28231  0.09436  Biso   1.000  O 
  H426     1.0000 0.50000  0.38860  0.21490  Biso   1.000  H 
  O163     1.0000 0.50000  0.36740  0.07190  Biso   1.000  O 
  O164     1.0000 0.50000  0.42810  0.13260  Biso   1.000  O 
  C435     1.0000 0.50913  0.23515  0.07504  Biso   1.000  C 
  C436     1.0000 0.45821  0.23334  0.42593  Biso   1.000  C 
  C437     1.0000 0.55065  0.19581  0.08745  Biso   1.000  C 
  H427     1.0000 0.51231  0.23955  0.03515  Biso   1.000  H 
  H428     1.0000 0.47008  0.22314  0.08359  Biso   1.000  H 
  H429     1.0000 0.57949  0.19464  0.05611  Biso   1.000  H 
  C438     1.0000 0.52484  0.14584  0.09250  Biso   1.000  C 
  H430     1.0000 0.56943  0.20640  0.12238  Biso   1.000  H 
  H431     1.0000 0.54780  0.12029  0.11544  Biso   1.000  H 
  H432     1.0000 0.51875  0.12777  0.05497  Biso   1.000  H 
  C439     1.0000 0.44240  0.28723  0.41335  Biso   1.000  C 
  H433     1.0000 0.46145  0.23108  0.46701  Biso   1.000  H 
  H434     1.0000 0.42904  0.20617  0.41379  Biso   1.000  H 
  C440     1.0000 0.48260  0.32615  0.42428  Biso   1.000  C 
  H435     1.0000 0.40955  0.29717  0.43653  Biso   1.000  H 
  H436     1.0000 0.43111  0.28933  0.37393  Biso   1.000  H 
  H437     1.0000 0.48080  0.33685  0.46400  Biso   1.000  H 
  H438     1.0000 0.52036  0.31212  0.41554  Biso   1.000  H 
  H439     1.0000 0.48759  0.15032  0.10875  Biso   1.000  H 
  H440     1.0000 0.47533  0.35963  0.40140  Biso   1.000  H 
  O165     1.0000 0.50000  0.92810  0.36740  Biso   1.000  O 
  C441     1.0000 0.50000  0.88280  0.38280  Biso   1.000  C 
  O166     1.0000 0.50000  0.86740  0.42810  Biso   1.000  O 
  C442     1.0000 0.50000  0.84350  0.34350  Biso   1.000  C 
  C443     1.0000 0.50000  0.85530  0.29420  Biso   1.000  C 
  C444     1.0000 0.50000  0.79420  0.35530  Biso   1.000  C 
  C445     1.0000 0.50000  0.82050  0.25800  Biso   1.000  C 
  H441     1.0000 0.50000  0.88860  0.28510  Biso   1.000  H 
  C446     1.0000 0.50000  0.75800  0.32050  Biso   1.000  C 
  O167     1.0000 0.49417  0.77850  0.40689  Biso   1.000  O 
  C447     1.0000 0.50000  0.76930  0.26930  Biso   1.000  C 
  C448     1.0000 0.50000  0.73070  0.23070  Biso   1.000  C 
  H442     1.0000 0.50000  0.83050  0.22490  Biso   1.000  H 
  C449     1.0000 0.50000  0.74200  0.17950  Biso   1.000  C 
  H443     1.0000 0.50000  0.72490  0.33050  Biso   1.000  H 
  C450     1.0000 0.50000  0.67950  0.24200  Biso   1.000  C 
  C451     1.0000 0.50000  0.70580  0.14470  Biso   1.000  C 
  H444     1.0000 0.50000  0.77510  0.16950  Biso   1.000  H 
  C452     1.0000 0.50000  0.64470  0.20580  Biso   1.000  C 
  H445     1.0000 0.50000  0.66950  0.27510  Biso   1.000  H 
  C453     1.0000 0.50000  0.65650  0.15650  Biso   1.000  C 
  C454     1.0000 0.50000  0.61720  0.11720  Biso   1.000  C 
  O168     1.0000 0.47945  0.71769  0.09436  Biso   1.000  O 
  H446     1.0000 0.50000  0.61140  0.21490  Biso   1.000  H 
  O169     1.0000 0.50000  0.63260  0.07190  Biso   1.000  O 
  O170     1.0000 0.50000  0.57190  0.13260  Biso   1.000  O 
  C455     1.0000 0.49087  0.76485  0.07504  Biso   1.000  C 
  C456     1.0000 0.54179  0.76666  0.42593  Biso   1.000  C 
  C457     1.0000 0.44935  0.80419  0.08745  Biso   1.000  C 
  H447     1.0000 0.48769  0.76046  0.03515  Biso   1.000  H 
  H448     1.0000 0.52992  0.77686  0.08359  Biso   1.000  H 
  H449     1.0000 0.42051  0.80536  0.05611  Biso   1.000  H 
  C458     1.0000 0.47516  0.85416  0.09250  Biso   1.000  C 
  H450     1.0000 0.43057  0.79360  0.12238  Biso   1.000  H 
  H451     1.0000 0.45220  0.87971  0.11544  Biso   1.000  H 
  H452     1.0000 0.48125  0.87223  0.05497  Biso   1.000  H 
  C459     1.0000 0.55760  0.71277  0.41335  Biso   1.000  C 
  H453     1.0000 0.53855  0.76892  0.46701  Biso   1.000  H 
  H454     1.0000 0.57096  0.79383  0.41379  Biso   1.000  H 
  C460     1.0000 0.51740  0.67385  0.42428  Biso   1.000  C 
  H455     1.0000 0.59045  0.70283  0.43653  Biso   1.000  H 
  H456     1.0000 0.56889  0.71067  0.37393  Biso   1.000  H 
  H457     1.0000 0.51920  0.66315  0.46400  Biso   1.000  H 
  H458     1.0000 0.47964  0.68788  0.41554  Biso   1.000  H 
  H459     1.0000 0.51241  0.84968  0.10875  Biso   1.000  H 
  H460     1.0000 0.52467  0.64037  0.40140  Biso   1.000  H 
  O171     1.0000 0.50000  0.92810  0.63260  Biso   1.000  O 
  C461     1.0000 0.50000  0.88280  0.61720  Biso   1.000  C 
  O172     1.0000 0.50000  0.86740  0.57190  Biso   1.000  O 
  C462     1.0000 0.50000  0.84350  0.65650  Biso   1.000  C 
  C463     1.0000 0.50000  0.85530  0.70580  Biso   1.000  C 
  C464     1.0000 0.50000  0.79420  0.64470  Biso   1.000  C 
  C465     1.0000 0.50000  0.82050  0.74200  Biso   1.000  C 
  H461     1.0000 0.50000  0.88860  0.71490  Biso   1.000  H 
  C466     1.0000 0.50000  0.75800  0.67950  Biso   1.000  C 
  O173     1.0000 0.50583  0.77850  0.59311  Biso   1.000  O 
  C467     1.0000 0.50000  0.76930  0.73070  Biso   1.000  C 
  C468     1.0000 0.50000  0.73070  0.76930  Biso   1.000  C 
  H462     1.0000 0.50000  0.83050  0.77510  Biso   1.000  H 
  C469     1.0000 0.50000  0.74200  0.82050  Biso   1.000  C 
  H463     1.0000 0.50000  0.72490  0.66950  Biso   1.000  H 
  C470     1.0000 0.50000  0.67950  0.75800  Biso   1.000  C 
  C471     1.0000 0.50000  0.70580  0.85530  Biso   1.000  C 
  H464     1.0000 0.50000  0.77510  0.83050  Biso   1.000  H 
  C472     1.0000 0.50000  0.64470  0.79420  Biso   1.000  C 
  H465     1.0000 0.50000  0.66950  0.72490  Biso   1.000  H 
  C473     1.0000 0.50000  0.65650  0.84350  Biso   1.000  C 
  C474     1.0000 0.50000  0.61720  0.88280  Biso   1.000  C 
  O174     1.0000 0.52055  0.71769  0.90564  Biso   1.000  O 
  H466     1.0000 0.50000  0.61140  0.78510  Biso   1.000  H 
  O175     1.0000 0.50000  0.63260  0.92810  Biso   1.000  O 
  O176     1.0000 0.50000  0.57190  0.86740  Biso   1.000  O 
  C475     1.0000 0.50913  0.76485  0.92496  Biso   1.000  C 
  C476     1.0000 0.45821  0.76666  0.57407  Biso   1.000  C 
  C477     1.0000 0.55065  0.80419  0.91255  Biso   1.000  C 
  H467     1.0000 0.51231  0.76046  0.96485  Biso   1.000  H 
  H468     1.0000 0.47008  0.77686  0.91641  Biso   1.000  H 
  H469     1.0000 0.57949  0.80536  0.94389  Biso   1.000  H 
  C478     1.0000 0.52484  0.85416  0.90750  Biso   1.000  C 
  H470     1.0000 0.56943  0.79360  0.87761  Biso   1.000  H 
  H471     1.0000 0.54780  0.87971  0.88456  Biso   1.000  H 
  H472     1.0000 0.51875  0.87223  0.94503  Biso   1.000  H 
  C479     1.0000 0.44240  0.71277  0.58665  Biso   1.000  C 
  H473     1.0000 0.46145  0.76892  0.53299  Biso   1.000  H 
  H474     1.0000 0.42904  0.79383  0.58621  Biso   1.000  H 
  C480     1.0000 0.48260  0.67385  0.57572  Biso   1.000  C 
  H475     1.0000 0.40955  0.70283  0.56347  Biso   1.000  H 
  H476     1.0000 0.43111  0.71067  0.62607  Biso   1.000  H 
  H477     1.0000 0.48080  0.66315  0.53600  Biso   1.000  H 
  H478     1.0000 0.52036  0.68788  0.58446  Biso   1.000  H 
  H479     1.0000 0.48759  0.84968  0.89125  Biso   1.000  H 
  H480     1.0000 0.47533  0.64037  0.59860  Biso   1.000  H 
