data_image0
_cell_length_a       20.7004
_cell_length_b       20.7004
_cell_length_c       20.7004
_cell_angle_alpha    90
_cell_angle_beta     90
_cell_angle_gamma    90

_symmetry_space_group_name_H-M    "P 1"
_symmetry_int_tables_number       1

loop_
  _symmetry_equiv_pos_as_xyz
  'x, y, z'

loop_
  _atom_site_label
  _atom_site_occupancy
  _atom_site_fract_x
  _atom_site_fract_y
  _atom_site_fract_z
  _atom_site_thermal_displace_type
  _atom_site_B_iso_or_equiv
  _atom_site_type_symbol
  Zr1      1.0000 0.11989  0.00000  0.00000  Biso   1.000  Zr
  Zr2      1.0000 0.11989  0.50000  0.50000  Biso   1.000  Zr
  Zr3      1.0000 0.61989  0.00000  0.50000  Biso   1.000  Zr
  Zr4      1.0000 0.61989  0.50000  0.00000  Biso   1.000  Zr
  Zr5      1.0000 0.88011  0.00000  0.00000  Biso   1.000  Zr
  Zr6      1.0000 0.88011  0.50000  0.50000  Biso   1.000  Zr
  Zr7      1.0000 0.38011  0.00000  0.50000  Biso   1.000  Zr
  Zr8      1.0000 0.38011  0.50000  0.00000  Biso   1.000  Zr
  Zr9      1.0000 0.00000  0.11989  0.00000  Biso   1.000  Zr
  Zr10     1.0000 0.00000  0.61989  0.50000  Biso   1.000  Zr
  Zr11     1.0000 0.50000  0.11989  0.50000  Biso   1.000  Zr
  Zr12     1.0000 0.50000  0.61989  0.00000  Biso   1.000  Zr
  Zr13     1.0000 0.00000  0.88011  0.00000  Biso   1.000  Zr
  Zr14     1.0000 0.00000  0.38011  0.50000  Biso   1.000  Zr
  Zr15     1.0000 0.50000  0.88011  0.50000  Biso   1.000  Zr
  Zr16     1.0000 0.50000  0.38011  0.00000  Biso   1.000  Zr
  Zr17     1.0000 0.00000  0.00000  0.11989  Biso   1.000  Zr
  Zr18     1.0000 0.00000  0.50000  0.61989  Biso   1.000  Zr
  Zr19     1.0000 0.50000  0.00000  0.61989  Biso   1.000  Zr
  Zr20     1.0000 0.50000  0.50000  0.11989  Biso   1.000  Zr
  Zr21     1.0000 0.00000  0.00000  0.88011  Biso   1.000  Zr
  Zr22     1.0000 0.00000  0.50000  0.38011  Biso   1.000  Zr
  Zr23     1.0000 0.50000  0.00000  0.38011  Biso   1.000  Zr
  Zr24     1.0000 0.50000  0.50000  0.88011  Biso   1.000  Zr
  O1       1.0000 0.05610  0.44390  0.44390  Biso   1.000  O 
  O2       1.0000 0.55610  0.94390  0.44390  Biso   1.000  O 
  O3       1.0000 0.55610  0.44390  0.94390  Biso   1.000  O 
  O4       1.0000 0.44390  0.05610  0.44390  Biso   1.000  O 
  O5       1.0000 0.44390  0.55610  0.94390  Biso   1.000  O 
  O6       1.0000 0.94390  0.94390  0.05610  Biso   1.000  O 
  O7       1.0000 0.94390  0.44390  0.55610  Biso   1.000  O 
  O8       1.0000 0.05610  0.05610  0.05610  Biso   1.000  O 
  O9       1.0000 0.55610  0.55610  0.05610  Biso   1.000  O 
  O10      1.0000 0.94390  0.05610  0.05610  Biso   1.000  O 
  O11      1.0000 0.94390  0.55610  0.55610  Biso   1.000  O 
  O12      1.0000 0.44390  0.05610  0.55610  Biso   1.000  O 
  O13      1.0000 0.44390  0.55610  0.05610  Biso   1.000  O 
  O14      1.0000 0.05610  0.94390  0.05610  Biso   1.000  O 
  O15      1.0000 0.05610  0.44390  0.55610  Biso   1.000  O 
  O16      1.0000 0.55610  0.94390  0.55610  Biso   1.000  O 
  O17      1.0000 0.55610  0.44390  0.05610  Biso   1.000  O 
  O18      1.0000 0.94390  0.94390  0.94390  Biso   1.000  O 
  O19      1.0000 0.94390  0.44390  0.44390  Biso   1.000  O 
  O20      1.0000 0.44390  0.94390  0.44390  Biso   1.000  O 
  O21      1.0000 0.44390  0.44390  0.94390  Biso   1.000  O 
  O22      1.0000 0.05610  0.05610  0.94390  Biso   1.000  O 
  O23      1.0000 0.05610  0.55610  0.44390  Biso   1.000  O 
  O24      1.0000 0.55610  0.05610  0.44390  Biso   1.000  O 
  C1       1.0000 0.15360  0.00000  0.84640  Biso   1.000  C 
  O25      1.0000 0.17046  0.00000  0.90471  Biso   1.000  O 
  O26      1.0000 0.09529  0.00000  0.82954  Biso   1.000  O 
  C2       1.0000 0.20500  0.00000  0.79500  Biso   1.000  C 
  C3       1.0000 0.18437  0.00000  0.73249  Biso   1.000  C 
  H1       1.0000 0.13046  0.00000  0.72128  Biso   1.000  H 
  O27      1.0000 0.21759  0.96810  0.62393  Biso   1.000  O 
  C4       1.0000 0.23249  0.00000  0.68442  Biso   1.000  C 
  C5       1.0000 0.29500  0.00000  0.70500  Biso   1.000  C 
  C6       1.0000 0.31558  0.00000  0.76751  Biso   1.000  C 
  C7       1.0000 0.26751  0.00000  0.81563  Biso   1.000  C 
  O28      1.0000 0.28370  0.03483  0.87464  Biso   1.000  O 
  H2       1.0000 0.36949  0.00000  0.77872  Biso   1.000  H 
  O29      1.0000 0.40470  0.00000  0.67046  Biso   1.000  O 
  C8       1.0000 0.34640  0.00000  0.65360  Biso   1.000  C 
  O30      1.0000 0.32954  0.00000  0.59529  Biso   1.000  O 
  C9       1.0000 0.22772  0.90160  0.63409  Biso   1.000  C 
  C10      1.0000 0.16602  0.86589  0.63938  Biso   1.000  C 
  H3       1.0000 0.25671  0.88734  0.67707  Biso   1.000  H 
  H4       1.0000 0.25597  0.88669  0.59434  Biso   1.000  H 
  H5       1.0000 0.13769  0.88083  0.68357  Biso   1.000  H 
  C11      1.0000 0.17812  0.79436  0.65623  Biso   1.000  C 
  H6       1.0000 0.13818  0.86839  0.59527  Biso   1.000  H 
  H7       1.0000 0.21699  0.77287  0.62628  Biso   1.000  H 
  H8       1.0000 0.13486  0.76301  0.64820  Biso   1.000  H 
  H9       1.0000 0.19069  0.79246  0.70797  Biso   1.000  H 
  C12      1.0000 0.28659  0.10216  0.85607  Biso   1.000  C 
  C13      1.0000 0.22072  0.13949  0.85223  Biso   1.000  C 
  H10      1.0000 0.31402  0.10947  0.81077  Biso   1.000  H 
  H11      1.0000 0.31417  0.12644  0.89403  Biso   1.000  H 
  H12      1.0000 0.18077  0.11919  0.88142  Biso   1.000  H 
  C14      1.0000 0.19900  0.15650  0.78436  Biso   1.000  C 
  H13      1.0000 0.23223  0.18650  0.87689  Biso   1.000  H 
  H14      1.0000 0.20445  0.11380  0.75570  Biso   1.000  H 
  H15      1.0000 0.22747  0.19505  0.76231  Biso   1.000  H 
  H16      1.0000 0.14745  0.17157  0.78429  Biso   1.000  H 
  C15      1.0000 0.15360  0.50000  0.34640  Biso   1.000  C 
  O31      1.0000 0.17046  0.50000  0.40471  Biso   1.000  O 
  O32      1.0000 0.09529  0.50000  0.32954  Biso   1.000  O 
  C16      1.0000 0.20500  0.50000  0.29500  Biso   1.000  C 
  C17      1.0000 0.18437  0.50000  0.23249  Biso   1.000  C 
  H17      1.0000 0.13046  0.50000  0.22128  Biso   1.000  H 
  O33      1.0000 0.21509  0.46769  0.12308  Biso   1.000  O 
  C18      1.0000 0.23249  0.50000  0.18442  Biso   1.000  C 
  C19      1.0000 0.29500  0.50000  0.20500  Biso   1.000  C 
  C20      1.0000 0.31558  0.50000  0.26751  Biso   1.000  C 
  C21      1.0000 0.26751  0.50000  0.31563  Biso   1.000  C 
  O34      1.0000 0.28461  0.53457  0.37550  Biso   1.000  O 
  H18      1.0000 0.36949  0.50000  0.27872  Biso   1.000  H 
  O35      1.0000 0.40470  0.50000  0.17046  Biso   1.000  O 
  C22      1.0000 0.34640  0.50000  0.15360  Biso   1.000  C 
  O36      1.0000 0.32954  0.50000  0.09529  Biso   1.000  O 
  C23      1.0000 0.22075  0.39851  0.12482  Biso   1.000  C 
  C24      1.0000 0.22840  0.35719  0.18881  Biso   1.000  C 
  H19      1.0000 0.26603  0.39003  0.09970  Biso   1.000  H 
  H20      1.0000 0.18178  0.37583  0.09575  Biso   1.000  H 
  H21      1.0000 0.27897  0.33784  0.19189  Biso   1.000  H 
  C25      1.0000 0.18374  0.29775  0.18656  Biso   1.000  C 
  H22      1.0000 0.21572  0.38223  0.23350  Biso   1.000  H 
  H23      1.0000 0.18770  0.26891  0.23228  Biso   1.000  H 
  H24      1.0000 0.19687  0.26758  0.14379  Biso   1.000  H 
  H25      1.0000 0.13248  0.31520  0.17963  Biso   1.000  H 
  C26      1.0000 0.28832  0.60367  0.36307  Biso   1.000  C 
  C27      1.0000 0.22548  0.64087  0.34956  Biso   1.000  C 
  H26      1.0000 0.32043  0.61248  0.32093  Biso   1.000  H 
  H27      1.0000 0.31401  0.62800  0.40250  Biso   1.000  H 
  H28      1.0000 0.20085  0.62307  0.30477  Biso   1.000  H 
  C28      1.0000 0.23492  0.71610  0.34073  Biso   1.000  C 
  H29      1.0000 0.19288  0.63368  0.38926  Biso   1.000  H 
  H30      1.0000 0.19400  0.74125  0.36648  Biso   1.000  H 
  H31      1.0000 0.23244  0.73060  0.28977  Biso   1.000  H 
  H32      1.0000 0.28244  0.73251  0.36105  Biso   1.000  H 
  C29      1.0000 0.65360  0.00000  0.34640  Biso   1.000  C 
  O37      1.0000 0.67046  0.00000  0.40471  Biso   1.000  O 
  O38      1.0000 0.59529  0.00000  0.32954  Biso   1.000  O 
  C30      1.0000 0.70500  0.00000  0.29500  Biso   1.000  C 
  C31      1.0000 0.68437  0.00000  0.23249  Biso   1.000  C 
  H33      1.0000 0.63046  0.00000  0.22128  Biso   1.000  H 
  O39      1.0000 0.71492  0.97728  0.12156  Biso   1.000  O 
  C32      1.0000 0.73248  0.00000  0.18442  Biso   1.000  C 
  C33      1.0000 0.79499  0.00000  0.20500  Biso   1.000  C 
  C34      1.0000 0.81558  0.00000  0.26751  Biso   1.000  C 
  C35      1.0000 0.76751  0.00000  0.31563  Biso   1.000  C 
  O40      1.0000 0.78108  0.02394  0.38053  Biso   1.000  O 
  H34      1.0000 0.86949  0.00000  0.27872  Biso   1.000  H 
  O41      1.0000 0.90470  0.00000  0.17046  Biso   1.000  O 
  C36      1.0000 0.84639  0.00000  0.15360  Biso   1.000  C 
  O42      1.0000 0.82953  0.00000  0.09529  Biso   1.000  O 
  C37      1.0000 0.71675  0.90643  0.12540  Biso   1.000  C 
  C38      1.0000 0.70560  0.86827  0.19164  Biso   1.000  C 
  H35      1.0000 0.76429  0.89094  0.10476  Biso   1.000  H 
  H36      1.0000 0.67841  0.88751  0.09232  Biso   1.000  H 
  H37      1.0000 0.74593  0.87873  0.22634  Biso   1.000  H 
  C39      1.0000 0.69794  0.79997  0.17123  Biso   1.000  C 
  H38      1.0000 0.65717  0.88386  0.20936  Biso   1.000  H 
  H39      1.0000 0.69677  0.77297  0.21586  Biso   1.000  H 
  H40      1.0000 0.73675  0.78386  0.13606  Biso   1.000  H 
  H41      1.0000 0.65056  0.79652  0.14801  Biso   1.000  H 
  C40      1.0000 0.81455  0.08193  0.37731  Biso   1.000  C 
  C41      1.0000 0.78441  0.13345  0.33248  Biso   1.000  C 
  H42      1.0000 0.86188  0.06839  0.36172  Biso   1.000  H 
  H43      1.0000 0.82078  0.10203  0.42284  Biso   1.000  H 
  H44      1.0000 0.78646  0.11542  0.28313  Biso   1.000  H 
  C42      1.0000 0.82088  0.19785  0.33027  Biso   1.000  C 
  H45      1.0000 0.73413  0.14236  0.34503  Biso   1.000  H 
  H46      1.0000 0.87115  0.19024  0.31597  Biso   1.000  H 
  H47      1.0000 0.81974  0.22060  0.37767  Biso   1.000  H 
  H48      1.0000 0.79841  0.23111  0.29661  Biso   1.000  H 
  C43      1.0000 0.65360  0.50000  0.84640  Biso   1.000  C 
  O43      1.0000 0.67046  0.50000  0.90471  Biso   1.000  O 
  O44      1.0000 0.59529  0.50000  0.82954  Biso   1.000  O 
  C44      1.0000 0.70500  0.50000  0.79500  Biso   1.000  C 
  C45      1.0000 0.68437  0.50000  0.73249  Biso   1.000  C 
  H49      1.0000 0.63046  0.50000  0.72128  Biso   1.000  H 
  O45      1.0000 0.71560  0.46459  0.62638  Biso   1.000  O 
  C46      1.0000 0.73248  0.50000  0.68442  Biso   1.000  C 
  C47      1.0000 0.79499  0.50000  0.70500  Biso   1.000  C 
  C48      1.0000 0.81558  0.50000  0.76751  Biso   1.000  C 
  C49      1.0000 0.76751  0.50000  0.81563  Biso   1.000  C 
  O46      1.0000 0.78248  0.53413  0.87491  Biso   1.000  O 
  H50      1.0000 0.86949  0.50000  0.77872  Biso   1.000  H 
  O47      1.0000 0.90470  0.50000  0.67046  Biso   1.000  O 
  C50      1.0000 0.84639  0.50000  0.65360  Biso   1.000  C 
  O48      1.0000 0.82953  0.50000  0.59529  Biso   1.000  O 
  C51      1.0000 0.72681  0.39921  0.64297  Biso   1.000  C 
  C52      1.0000 0.66566  0.35823  0.64401  Biso   1.000  C 
  H51      1.0000 0.75081  0.38869  0.69007  Biso   1.000  H 
  H52      1.0000 0.75927  0.38129  0.60566  Biso   1.000  H 
  H53      1.0000 0.63549  0.37813  0.68275  Biso   1.000  H 
  C53      1.0000 0.67525  0.28548  0.66091  Biso   1.000  C 
  H54      1.0000 0.64129  0.36348  0.59645  Biso   1.000  H 
  H55      1.0000 0.69610  0.25461  0.62192  Biso   1.000  H 
  H56      1.0000 0.62736  0.26522  0.67162  Biso   1.000  H 
  H57      1.0000 0.70814  0.28128  0.70440  Biso   1.000  H 
  C54      1.0000 0.79314  0.60104  0.85804  Biso   1.000  C 
  C55      1.0000 0.73317  0.64432  0.85125  Biso   1.000  C 
  H58      1.0000 0.82138  0.60972  0.81333  Biso   1.000  H 
  H59      1.0000 0.82286  0.61750  0.89813  Biso   1.000  H 
  H60      1.0000 0.69182  0.61982  0.87344  Biso   1.000  H 
  C56      1.0000 0.71432  0.66475  0.78216  Biso   1.000  C 
  H61      1.0000 0.74006  0.69096  0.87693  Biso   1.000  H 
  H62      1.0000 0.66175  0.67199  0.78325  Biso   1.000  H 
  H63      1.0000 0.72460  0.62577  0.74571  Biso   1.000  H 
  H64      1.0000 0.74107  0.70865  0.76834  Biso   1.000  H 
  C57      1.0000 0.84640  0.00000  0.84640  Biso   1.000  C 
  O49      1.0000 0.82954  0.00000  0.90471  Biso   1.000  O 
  O50      1.0000 0.90471  0.00000  0.82954  Biso   1.000  O 
  C58      1.0000 0.79500  0.00000  0.79500  Biso   1.000  C 
  C59      1.0000 0.81563  0.00000  0.73249  Biso   1.000  C 
  H65      1.0000 0.86954  0.00000  0.72128  Biso   1.000  H 
  O51      1.0000 0.78504  0.01117  0.61811  Biso   1.000  O 
  C60      1.0000 0.76752  0.00000  0.68442  Biso   1.000  C 
  C61      1.0000 0.70501  0.00000  0.70500  Biso   1.000  C 
  C62      1.0000 0.68442  0.00000  0.76751  Biso   1.000  C 
  C63      1.0000 0.73249  0.00000  0.81563  Biso   1.000  C 
  O52      1.0000 0.71490  0.01853  0.88133  Biso   1.000  O 
  H66      1.0000 0.63051  0.00000  0.77872  Biso   1.000  H 
  O53      1.0000 0.59530  0.00000  0.67046  Biso   1.000  O 
  C64      1.0000 0.65361  0.00000  0.65360  Biso   1.000  C 
  O54      1.0000 0.67047  0.00000  0.59529  Biso   1.000  O 
  C65      1.0000 0.80960  0.95456  0.59383  Biso   1.000  C 
  C66      1.0000 0.83159  0.96548  0.52289  Biso   1.000  C 
  H67      1.0000 0.77022  0.91813  0.59466  Biso   1.000  H 
  H68      1.0000 0.85349  0.93944  0.62224  Biso   1.000  H 
  H69      1.0000 0.86039  0.92262  0.50611  Biso   1.000  H 
  C67      1.0000 0.87907  0.01829  0.51539  Biso   1.000  C 
  H70      1.0000 0.78788  0.97508  0.49138  Biso   1.000  H 
  H71      1.0000 0.85518  0.06403  0.52901  Biso   1.000  H 
  H72      1.0000 0.89577  0.01960  0.46524  Biso   1.000  H 
  H73      1.0000 0.91971  0.00938  0.54748  Biso   1.000  H 
  C68      1.0000 0.68775  0.96987  0.92077  Biso   1.000  C 
  C69      1.0000 0.68150  0.99250  0.99013  Biso   1.000  C 
  H74      1.0000 0.71829  0.92563  0.91689  Biso   1.000  H 
  H75      1.0000 0.64005  0.95971  0.90256  Biso   1.000  H 
  H76      1.0000 0.66537  0.95302  0.01951  Biso   1.000  H 
  C70      1.0000 0.63014  0.04080  0.00229  Biso   1.000  C 
  H77      1.0000 0.72890  0.01086  0.00826  Biso   1.000  H 
  H78      1.0000 0.58400  0.01612  0.00278  Biso   1.000  H 
  H79      1.0000 0.62944  0.07743  0.96505  Biso   1.000  H 
  H80      1.0000 0.63470  0.06605  0.05005  Biso   1.000  H 
  C71      1.0000 0.84640  0.50000  0.34640  Biso   1.000  C 
  O55      1.0000 0.82954  0.50000  0.40471  Biso   1.000  O 
  O56      1.0000 0.90471  0.50000  0.32954  Biso   1.000  O 
  C72      1.0000 0.79500  0.50000  0.29500  Biso   1.000  C 
  C73      1.0000 0.81563  0.50000  0.23249  Biso   1.000  C 
  H81      1.0000 0.86954  0.50000  0.22128  Biso   1.000  H 
  O57      1.0000 0.78523  0.51385  0.11863  Biso   1.000  O 
  C74      1.0000 0.76752  0.50000  0.18442  Biso   1.000  C 
  C75      1.0000 0.70501  0.50000  0.20500  Biso   1.000  C 
  C76      1.0000 0.68442  0.50000  0.26751  Biso   1.000  C 
  C77      1.0000 0.73249  0.50000  0.31563  Biso   1.000  C 
  O58      1.0000 0.71464  0.52418  0.37931  Biso   1.000  O 
  H82      1.0000 0.63051  0.50000  0.27872  Biso   1.000  H 
  O59      1.0000 0.59530  0.50000  0.17046  Biso   1.000  O 
  C78      1.0000 0.65361  0.50000  0.15360  Biso   1.000  C 
  O60      1.0000 0.67047  0.50000  0.09529  Biso   1.000  O 
  C79      1.0000 0.80493  0.45681  0.09113  Biso   1.000  C 
  C80      1.0000 0.83294  0.47286  0.02469  Biso   1.000  C 
  H83      1.0000 0.76274  0.42385  0.08855  Biso   1.000  H 
  H84      1.0000 0.84290  0.43414  0.12025  Biso   1.000  H 
  H85      1.0000 0.85804  0.42913  0.00722  Biso   1.000  H 
  C81      1.0000 0.88549  0.52499  0.02700  Biso   1.000  C 
  H86      1.0000 0.79259  0.48675  0.99221  Biso   1.000  H 
  H87      1.0000 0.86314  0.57217  0.03696  Biso   1.000  H 
  H88      1.0000 0.91611  0.52625  0.98244  Biso   1.000  H 
  H89      1.0000 0.91776  0.51383  0.06780  Biso   1.000  H 
  C82      1.0000 0.69730  0.47474  0.42174  Biso   1.000  C 
  C83      1.0000 0.69667  0.50043  0.49146  Biso   1.000  C 
  H90      1.0000 0.73355  0.43665  0.42140  Biso   1.000  H 
  H91      1.0000 0.64935  0.45411  0.40614  Biso   1.000  H 
  H92      1.0000 0.68788  0.45905  0.52268  Biso   1.000  H 
  C84      1.0000 0.63876  0.54339  0.50129  Biso   1.000  C 
  H93      1.0000 0.74351  0.52342  0.50595  Biso   1.000  H 
  H94      1.0000 0.59289  0.51614  0.50315  Biso   1.000  H 
  H95      1.0000 0.63393  0.57718  0.46009  Biso   1.000  H 
  H96      1.0000 0.64424  0.56821  0.54683  Biso   1.000  H 
  C85      1.0000 0.34640  0.00000  0.34640  Biso   1.000  C 
  O61      1.0000 0.32954  0.00000  0.40471  Biso   1.000  O 
  O62      1.0000 0.40471  0.00000  0.32954  Biso   1.000  O 
  C86      1.0000 0.29500  0.00000  0.29500  Biso   1.000  C 
  C87      1.0000 0.31563  0.00000  0.23249  Biso   1.000  C 
  H97      1.0000 0.36954  0.00000  0.22128  Biso   1.000  H 
  O63      1.0000 0.28310  0.01978  0.11813  Biso   1.000  O 
  C88      1.0000 0.26751  0.00000  0.18442  Biso   1.000  C 
  C89      1.0000 0.20500  0.00000  0.20500  Biso   1.000  C 
  C90      1.0000 0.18442  0.00000  0.26751  Biso   1.000  C 
  C91      1.0000 0.23249  0.00000  0.31563  Biso   1.000  C 
  O64      1.0000 0.21520  0.02435  0.37852  Biso   1.000  O 
  H98      1.0000 0.13051  0.00000  0.27872  Biso   1.000  H 
  O65      1.0000 0.09530  0.00000  0.17046  Biso   1.000  O 
  C92      1.0000 0.15360  0.00000  0.15360  Biso   1.000  C 
  O66      1.0000 0.17046  0.00000  0.09529  Biso   1.000  O 
  C93      1.0000 0.32623  0.98121  0.08314  Biso   1.000  C 
  C94      1.0000 0.32514  0.99941  0.01090  Biso   1.000  C 
  H99      1.0000 0.31112  0.93085  0.08681  Biso   1.000  H 
  H100     1.0000 0.37774  0.98674  0.10019  Biso   1.000  H 
  H101     1.0000 0.27630  0.99001  0.99118  Biso   1.000  H 
  C95      1.0000 0.37403  0.95968  0.97185  Biso   1.000  C 
  H102     1.0000 0.33716  0.05060  0.00237  Biso   1.000  H 
  H103     1.0000 0.35722  0.96070  0.92111  Biso   1.000  H 
  H104     1.0000 0.37369  0.90895  0.98691  Biso   1.000  H 
  H105     1.0000 0.42360  0.97956  0.97462  Biso   1.000  H 
  C96      1.0000 0.19030  0.97318  0.41507  Biso   1.000  C 
  C97      1.0000 0.18314  0.99447  0.48500  Biso   1.000  C 
  H106     1.0000 0.22339  0.93031  0.41477  Biso   1.000  H 
  H107     1.0000 0.14226  0.95855  0.39501  Biso   1.000  H 
  H108     1.0000 0.16683  0.95197  0.51228  Biso   1.000  H 
  C98      1.0000 0.13174  0.04633  0.49886  Biso   1.000  C 
  H109     1.0000 0.23081  0.00907  0.50381  Biso   1.000  H 
  H110     1.0000 0.08316  0.02484  0.49943  Biso   1.000  H 
  H111     1.0000 0.13542  0.08555  0.46145  Biso   1.000  H 
  H112     1.0000 0.14059  0.06822  0.54667  Biso   1.000  H 
  C99      1.0000 0.34640  0.50000  0.84640  Biso   1.000  C 
  O67      1.0000 0.32954  0.50000  0.90471  Biso   1.000  O 
  O68      1.0000 0.40471  0.50000  0.82954  Biso   1.000  O 
  C100     1.0000 0.29500  0.50000  0.79500  Biso   1.000  C 
  C101     1.0000 0.31563  0.50000  0.73249  Biso   1.000  C 
  H113     1.0000 0.36954  0.50000  0.72128  Biso   1.000  H 
  O69      1.0000 0.28440  0.51803  0.61936  Biso   1.000  O 
  C102     1.0000 0.26751  0.50000  0.68442  Biso   1.000  C 
  C103     1.0000 0.20500  0.50000  0.70500  Biso   1.000  C 
  C104     1.0000 0.18442  0.50000  0.76751  Biso   1.000  C 
  C105     1.0000 0.23249  0.50000  0.81563  Biso   1.000  C 
  O70      1.0000 0.21503  0.51728  0.88030  Biso   1.000  O 
  H114     1.0000 0.13051  0.50000  0.77872  Biso   1.000  H 
  O71      1.0000 0.09530  0.50000  0.67046  Biso   1.000  O 
  C106     1.0000 0.15360  0.50000  0.65360  Biso   1.000  C 
  O72      1.0000 0.17046  0.50000  0.59529  Biso   1.000  O 
  C107     1.0000 0.30793  0.46418  0.58738  Biso   1.000  C 
  C108     1.0000 0.33037  0.47760  0.51938  Biso   1.000  C 
  H115     1.0000 0.26825  0.42918  0.58412  Biso   1.000  H 
  H116     1.0000 0.35012  0.44452  0.61496  Biso   1.000  H 
  H117     1.0000 0.35133  0.43276  0.49809  Biso   1.000  H 
  C109     1.0000 0.38713  0.52507  0.51142  Biso   1.000  C 
  H118     1.0000 0.28748  0.49397  0.49199  Biso   1.000  H 
  H119     1.0000 0.37204  0.57349  0.52898  Biso   1.000  H 
  H120     1.0000 0.39719  0.52744  0.45907  Biso   1.000  H 
  H121     1.0000 0.43004  0.50788  0.53727  Biso   1.000  H 
  C110     1.0000 0.19539  0.46411  0.91531  Biso   1.000  C 
  C111     1.0000 0.18346  0.48586  0.98189  Biso   1.000  C 
  H122     1.0000 0.23213  0.42417  0.91232  Biso   1.000  H 
  H123     1.0000 0.15111  0.44323  0.89847  Biso   1.000  H 
  H124     1.0000 0.16409  0.44880  0.01236  Biso   1.000  H 
  C112     1.0000 0.14202  0.54309  0.98987  Biso   1.000  C 
  H125     1.0000 0.23138  0.49956  0.00192  Biso   1.000  H 
  H126     1.0000 0.09366  0.52815  0.98221  Biso   1.000  H 
  H127     1.0000 0.15367  0.58134  0.95302  Biso   1.000  H 
  H128     1.0000 0.14444  0.56152  0.03976  Biso   1.000  H 
  C113     1.0000 0.84640  0.15360  0.00000  Biso   1.000  C 
  O73      1.0000 0.90471  0.17046  0.00000  Biso   1.000  O 
  O74      1.0000 0.82954  0.09529  0.00000  Biso   1.000  O 
  C114     1.0000 0.79500  0.20500  0.00000  Biso   1.000  C 
  C115     1.0000 0.73249  0.18437  0.00000  Biso   1.000  C 
  H129     1.0000 0.72128  0.13046  0.00000  Biso   1.000  H 
  O75      1.0000 0.62426  0.21673  0.96520  Biso   1.000  O 
  C116     1.0000 0.68442  0.23249  0.00000  Biso   1.000  C 
  C117     1.0000 0.70500  0.29500  0.00000  Biso   1.000  C 
  C118     1.0000 0.76751  0.31558  0.00000  Biso   1.000  C 
  C119     1.0000 0.81563  0.26751  0.00000  Biso   1.000  C 
  O76      1.0000 0.87340  0.28464  0.03809  Biso   1.000  O 
  H130     1.0000 0.77872  0.36949  0.00000  Biso   1.000  H 
  O77      1.0000 0.67046  0.40470  0.00000  Biso   1.000  O 
  C120     1.0000 0.65360  0.34640  0.00000  Biso   1.000  C 
  O78      1.0000 0.59529  0.32954  0.00000  Biso   1.000  O 
  C121     1.0000 0.63590  0.23041  0.89835  Biso   1.000  C 
  C122     1.0000 0.63937  0.16832  0.86285  Biso   1.000  C 
  H131     1.0000 0.68044  0.25955  0.88916  Biso   1.000  H 
  H132     1.0000 0.59361  0.25816  0.88300  Biso   1.000  H 
  H133     1.0000 0.67372  0.13362  0.88685  Biso   1.000  H 
  C123     1.0000 0.67004  0.18199  0.79740  Biso   1.000  C 
  H134     1.0000 0.59326  0.14576  0.85990  Biso   1.000  H 
  H135     1.0000 0.62897  0.20047  0.77062  Biso   1.000  H 
  H136     1.0000 0.68619  0.13822  0.77462  Biso   1.000  H 
  H137     1.0000 0.71013  0.21875  0.79502  Biso   1.000  H 
  C124     1.0000 0.85801  0.28767  0.10741  Biso   1.000  C 
  C125     1.0000 0.85814  0.22050  0.14540  Biso   1.000  C 
  H138     1.0000 0.81301  0.31539  0.11653  Biso   1.000  H 
  H139     1.0000 0.89626  0.31511  0.12908  Biso   1.000  H 
  H140     1.0000 0.88872  0.18672  0.11868  Biso   1.000  H 
  C126     1.0000 0.79333  0.18432  0.15079  Biso   1.000  C 
  H141     1.0000 0.87804  0.22755  0.19446  Biso   1.000  H 
  H142     1.0000 0.79213  0.13666  0.12512  Biso   1.000  H 
  H143     1.0000 0.75601  0.21611  0.12999  Biso   1.000  H 
  H144     1.0000 0.77852  0.17594  0.20106  Biso   1.000  H 
  C127     1.0000 0.84640  0.65360  0.50000  Biso   1.000  C 
  O79      1.0000 0.90471  0.67046  0.50000  Biso   1.000  O 
  O80      1.0000 0.82954  0.59529  0.50000  Biso   1.000  O 
  C128     1.0000 0.79500  0.70500  0.50000  Biso   1.000  C 
  C129     1.0000 0.73249  0.68437  0.50000  Biso   1.000  C 
  H145     1.0000 0.72128  0.63046  0.50000  Biso   1.000  H 
  O81      1.0000 0.62494  0.71721  0.47066  Biso   1.000  O 
  C130     1.0000 0.68442  0.73248  0.50000  Biso   1.000  C 
  C131     1.0000 0.70500  0.79499  0.50000  Biso   1.000  C 
  C132     1.0000 0.76751  0.81558  0.50000  Biso   1.000  C 
  C133     1.0000 0.81563  0.76751  0.50000  Biso   1.000  C 
  O82      1.0000 0.87716  0.78574  0.52785  Biso   1.000  O 
  H146     1.0000 0.77872  0.86949  0.50000  Biso   1.000  H 
  O83      1.0000 0.67046  0.90470  0.50000  Biso   1.000  O 
  C134     1.0000 0.65360  0.84639  0.50000  Biso   1.000  C 
  O84      1.0000 0.59529  0.82953  0.50000  Biso   1.000  O 
  C135     1.0000 0.63181  0.71291  0.40182  Biso   1.000  C 
  C136     1.0000 0.69889  0.70934  0.36598  Biso   1.000  C 
  H147     1.0000 0.61155  0.75873  0.38104  Biso   1.000  H 
  H148     1.0000 0.60151  0.66954  0.38683  Biso   1.000  H 
  H149     1.0000 0.71902  0.75964  0.36557  Biso   1.000  H 
  C137     1.0000 0.69803  0.68363  0.29511  Biso   1.000  C 
  H150     1.0000 0.73351  0.67613  0.38870  Biso   1.000  H 
  H151     1.0000 0.73890  0.70729  0.26915  Biso   1.000  H 
  H152     1.0000 0.65091  0.69524  0.27240  Biso   1.000  H 
  H153     1.0000 0.70717  0.63103  0.29101  Biso   1.000  H 
  C138     1.0000 0.86517  0.80697  0.59353  Biso   1.000  C 
  C139     1.0000 0.84246  0.75913  0.64535  Biso   1.000  C 
  H154     1.0000 0.82924  0.84160  0.59483  Biso   1.000  H 
  H155     1.0000 0.91019  0.82910  0.60867  Biso   1.000  H 
  H156     1.0000 0.79172  0.74615  0.63447  Biso   1.000  H 
  C140     1.0000 0.83679  0.78933  0.71425  Biso   1.000  C 
  H157     1.0000 0.87060  0.71298  0.64427  Biso   1.000  H 
  H158     1.0000 0.78878  0.81301  0.71722  Biso   1.000  H 
  H159     1.0000 0.87475  0.82515  0.72429  Biso   1.000  H 
  H160     1.0000 0.83973  0.75121  0.75128  Biso   1.000  H 
  C141     1.0000 0.34640  0.15360  0.50000  Biso   1.000  C 
  O85      1.0000 0.40471  0.17046  0.50000  Biso   1.000  O 
  O86      1.0000 0.32954  0.09529  0.50000  Biso   1.000  O 
  C142     1.0000 0.29500  0.20500  0.50000  Biso   1.000  C 
  C143     1.0000 0.23249  0.18437  0.50000  Biso   1.000  C 
  H161     1.0000 0.22128  0.13046  0.50000  Biso   1.000  H 
  O87      1.0000 0.12326  0.21279  0.47623  Biso   1.000  O 
  C144     1.0000 0.18442  0.23249  0.50000  Biso   1.000  C 
  C145     1.0000 0.20500  0.29500  0.50000  Biso   1.000  C 
  C146     1.0000 0.26751  0.31558  0.50000  Biso   1.000  C 
  C147     1.0000 0.31563  0.26751  0.50000  Biso   1.000  C 
  O88      1.0000 0.37824  0.28289  0.52710  Biso   1.000  O 
  H162     1.0000 0.27872  0.36949  0.50000  Biso   1.000  H 
  O89      1.0000 0.17046  0.40470  0.50000  Biso   1.000  O 
  C148     1.0000 0.15360  0.34640  0.50000  Biso   1.000  C 
  O90      1.0000 0.09529  0.32954  0.50000  Biso   1.000  O 
  C149     1.0000 0.12419  0.21899  0.40796  Biso   1.000  C 
  C150     1.0000 0.18951  0.22099  0.37101  Biso   1.000  C 
  H163     1.0000 0.09820  0.26260  0.39620  Biso   1.000  H 
  H164     1.0000 0.09744  0.17744  0.38643  Biso   1.000  H 
  H165     1.0000 0.17724  0.25070  0.32839  Biso   1.000  H 
  C151     1.0000 0.21823  0.16278  0.34056  Biso   1.000  C 
  H166     1.0000 0.22900  0.24623  0.39287  Biso   1.000  H 
  H167     1.0000 0.18187  0.13270  0.31641  Biso   1.000  H 
  H168     1.0000 0.24443  0.13568  0.37825  Biso   1.000  H 
  H169     1.0000 0.25554  0.18194  0.30566  Biso   1.000  H 
  C152     1.0000 0.36694  0.30526  0.59081  Biso   1.000  C 
  C153     1.0000 0.33600  0.25610  0.63951  Biso   1.000  C 
  H170     1.0000 0.33692  0.34783  0.59197  Biso   1.000  H 
  H171     1.0000 0.41286  0.31928  0.60968  Biso   1.000  H 
  H172     1.0000 0.28782  0.23799  0.62275  Biso   1.000  H 
  C154     1.0000 0.32919  0.28129  0.71082  Biso   1.000  C 
  H173     1.0000 0.36920  0.21386  0.64265  Biso   1.000  H 
  H174     1.0000 0.28220  0.30409  0.72014  Biso   1.000  H 
  H175     1.0000 0.36928  0.31494  0.72172  Biso   1.000  H 
  H176     1.0000 0.33338  0.23921  0.74394  Biso   1.000  H 
  C155     1.0000 0.34640  0.65360  0.00000  Biso   1.000  C 
  O91      1.0000 0.40471  0.67046  0.00000  Biso   1.000  O 
  O92      1.0000 0.32954  0.59529  0.00000  Biso   1.000  O 
  C156     1.0000 0.29500  0.70500  0.00000  Biso   1.000  C 
  C157     1.0000 0.23249  0.68437  0.00000  Biso   1.000  C 
  H177     1.0000 0.22128  0.63046  0.00000  Biso   1.000  H 
  O93      1.0000 0.12580  0.71500  0.96264  Biso   1.000  O 
  C158     1.0000 0.18442  0.73248  0.00000  Biso   1.000  C 
  C159     1.0000 0.20500  0.79499  0.00000  Biso   1.000  C 
  C160     1.0000 0.26751  0.81558  0.00000  Biso   1.000  C 
  C161     1.0000 0.31563  0.76751  0.00000  Biso   1.000  C 
  O94      1.0000 0.37665  0.78275  0.03167  Biso   1.000  O 
  H178     1.0000 0.27872  0.86949  0.00000  Biso   1.000  H 
  O95      1.0000 0.17046  0.90470  0.00000  Biso   1.000  O 
  C162     1.0000 0.15360  0.84639  0.00000  Biso   1.000  C 
  O96      1.0000 0.09529  0.82953  0.00000  Biso   1.000  O 
  C163     1.0000 0.13846  0.72506  0.89591  Biso   1.000  C 
  C164     1.0000 0.15352  0.66315  0.85492  Biso   1.000  C 
  H179     1.0000 0.18052  0.75622  0.88756  Biso   1.000  H 
  H180     1.0000 0.09703  0.75527  0.87853  Biso   1.000  H 
  H181     1.0000 0.20053  0.64709  0.87481  Biso   1.000  H 
  C165     1.0000 0.16499  0.68335  0.78218  Biso   1.000  C 
  H182     1.0000 0.11837  0.62182  0.85584  Biso   1.000  H 
  H183     1.0000 0.12857  0.70765  0.75523  Biso   1.000  H 
  H184     1.0000 0.17945  0.64036  0.75285  Biso   1.000  H 
  H185     1.0000 0.20449  0.71699  0.78343  Biso   1.000  H 
  C166     1.0000 0.36532  0.79437  0.09919  Biso   1.000  C 
  C167     1.0000 0.35247  0.73204  0.13910  Biso   1.000  C 
  H186     1.0000 0.32168  0.82558  0.10707  Biso   1.000  H 
  H187     1.0000 0.40607  0.82153  0.11666  Biso   1.000  H 
  H188     1.0000 0.30306  0.71615  0.12803  Biso   1.000  H 
  C168     1.0000 0.34703  0.74589  0.21126  Biso   1.000  C 
  H189     1.0000 0.38647  0.69257  0.12862  Biso   1.000  H 
  H190     1.0000 0.39281  0.75691  0.23333  Biso   1.000  H 
  H191     1.0000 0.32346  0.70507  0.23486  Biso   1.000  H 
  H192     1.0000 0.31598  0.78867  0.21174  Biso   1.000  H 
  C169     1.0000 0.84640  0.84640  0.00000  Biso   1.000  C 
  O97      1.0000 0.90471  0.82954  0.00000  Biso   1.000  O 
  O98      1.0000 0.82954  0.90471  0.00000  Biso   1.000  O 
  C170     1.0000 0.79500  0.79500  0.00000  Biso   1.000  C 
  C171     1.0000 0.73249  0.81563  0.00000  Biso   1.000  C 
  H193     1.0000 0.72128  0.86954  0.00000  Biso   1.000  H 
  O99      1.0000 0.61798  0.78446  0.01215  Biso   1.000  O 
  C172     1.0000 0.68442  0.76752  0.00000  Biso   1.000  C 
  C173     1.0000 0.70500  0.70501  0.00000  Biso   1.000  C 
  C174     1.0000 0.76751  0.68442  0.00000  Biso   1.000  C 
  C175     1.0000 0.81563  0.73249  0.00000  Biso   1.000  C 
  O100     1.0000 0.88075  0.71398  0.02042  Biso   1.000  O 
  H194     1.0000 0.77872  0.63051  0.00000  Biso   1.000  H 
  O101     1.0000 0.67046  0.59530  0.00000  Biso   1.000  O 
  C176     1.0000 0.65360  0.65361  0.00000  Biso   1.000  C 
  O102     1.0000 0.59529  0.67047  0.00000  Biso   1.000  O 
  C177     1.0000 0.59121  0.81014  0.95623  Biso   1.000  C 
  C178     1.0000 0.52490  0.83294  0.97455  Biso   1.000  C 
  H195     1.0000 0.58702  0.77208  0.91945  Biso   1.000  H 
  H196     1.0000 0.61959  0.85064  0.93580  Biso   1.000  H 
  H197     1.0000 0.50360  0.86216  0.93578  Biso   1.000  H 
  C179     1.0000 0.52673  0.87432  0.03391  Biso   1.000  C 
  H198     1.0000 0.49206  0.79236  0.98568  Biso   1.000  H 
  H199     1.0000 0.54473  0.84870  0.07629  Biso   1.000  H 
  H200     1.0000 0.47743  0.89654  0.04411  Biso   1.000  H 
  H201     1.0000 0.56142  0.91254  0.02381  Biso   1.000  H 
  C180     1.0000 0.91879  0.68759  0.97147  Biso   1.000  C 
  C181     1.0000 0.98972  0.68680  0.99246  Biso   1.000  C 
  H202     1.0000 0.91157  0.71511  0.92616  Biso   1.000  H 
  H203     1.0000 0.90670  0.63729  0.96190  Biso   1.000  H 
  H204     1.0000 0.01995  0.66962  0.95197  Biso   1.000  H 
  C182     1.0000 0.00274  0.63883  0.04641  Biso   1.000  C 
  H205     1.0000 0.00499  0.73604  0.00742  Biso   1.000  H 
  H206     1.0000 0.00254  0.58947  0.02572  Biso   1.000  H 
  H207     1.0000 0.96476  0.64083  0.08347  Biso   1.000  H 
  H208     1.0000 0.05222  0.64813  0.06737  Biso   1.000  H 
  C183     1.0000 0.84640  0.34640  0.50000  Biso   1.000  C 
  O103     1.0000 0.90471  0.32954  0.50000  Biso   1.000  O 
  O104     1.0000 0.82954  0.40471  0.50000  Biso   1.000  O 
  C184     1.0000 0.79500  0.29500  0.50000  Biso   1.000  C 
  C185     1.0000 0.73249  0.31563  0.50000  Biso   1.000  C 
  H209     1.0000 0.72128  0.36954  0.50000  Biso   1.000  H 
  O105     1.0000 0.62004  0.28580  0.52084  Biso   1.000  O 
  C186     1.0000 0.68442  0.26751  0.50000  Biso   1.000  C 
  C187     1.0000 0.70500  0.20500  0.50000  Biso   1.000  C 
  C188     1.0000 0.76751  0.18442  0.50000  Biso   1.000  C 
  C189     1.0000 0.81563  0.23249  0.50000  Biso   1.000  C 
  O106     1.0000 0.87982  0.21413  0.51723  Biso   1.000  O 
  H210     1.0000 0.77872  0.13051  0.50000  Biso   1.000  H 
  O107     1.0000 0.67046  0.09530  0.50000  Biso   1.000  O 
  C190     1.0000 0.65360  0.15360  0.50000  Biso   1.000  C 
  O108     1.0000 0.59529  0.17046  0.50000  Biso   1.000  O 
  C191     1.0000 0.58198  0.30182  0.46564  Biso   1.000  C 
  C192     1.0000 0.51485  0.32370  0.48898  Biso   1.000  C 
  H211     1.0000 0.58149  0.26032  0.43108  Biso   1.000  H 
  H212     1.0000 0.60425  0.34505  0.44254  Biso   1.000  H 
  H213     1.0000 0.48486  0.33888  0.44709  Biso   1.000  H 
  C193     1.0000 0.52087  0.38384  0.52920  Biso   1.000  C 
  H214     1.0000 0.49049  0.28424  0.51638  Biso   1.000  H 
  H215     1.0000 0.53905  0.37162  0.57821  Biso   1.000  H 
  H216     1.0000 0.47136  0.40439  0.53272  Biso   1.000  H 
  H217     1.0000 0.55230  0.41946  0.50529  Biso   1.000  H 
  C194     1.0000 0.91702  0.20058  0.46235  Biso   1.000  C 
  C195     1.0000 0.98556  0.18945  0.48896  Biso   1.000  C 
  H218     1.0000 0.91355  0.24028  0.42762  Biso   1.000  H 
  H219     1.0000 0.90251  0.15498  0.43868  Biso   1.000  H 
  H220     1.0000 0.01569  0.16974  0.45106  Biso   1.000  H 
  C196     1.0000 0.98848  0.13585  0.54038  Biso   1.000  C 
  H221     1.0000 0.00497  0.23572  0.50584  Biso   1.000  H 
  H222     1.0000 0.98207  0.09011  0.51441  Biso   1.000  H 
  H223     1.0000 0.95122  0.13859  0.57716  Biso   1.000  H 
  H224     1.0000 0.03598  0.13521  0.56437  Biso   1.000  H 
  C197     1.0000 0.34640  0.84640  0.50000  Biso   1.000  C 
  O109     1.0000 0.40471  0.82954  0.50000  Biso   1.000  O 
  O110     1.0000 0.32954  0.90471  0.50000  Biso   1.000  O 
  C198     1.0000 0.29500  0.79500  0.50000  Biso   1.000  C 
  C199     1.0000 0.23249  0.81563  0.50000  Biso   1.000  C 
  H225     1.0000 0.22128  0.86954  0.50000  Biso   1.000  H 
  O111     1.0000 0.11963  0.78610  0.51424  Biso   1.000  O 
  C200     1.0000 0.18442  0.76752  0.50000  Biso   1.000  C 
  C201     1.0000 0.20500  0.70501  0.50000  Biso   1.000  C 
  C202     1.0000 0.26751  0.68442  0.50000  Biso   1.000  C 
  C203     1.0000 0.31563  0.73249  0.50000  Biso   1.000  C 
  O112     1.0000 0.37865  0.71158  0.51860  Biso   1.000  O 
  H226     1.0000 0.27872  0.63051  0.50000  Biso   1.000  H 
  O113     1.0000 0.17046  0.59530  0.50000  Biso   1.000  O 
  C204     1.0000 0.15360  0.65361  0.50000  Biso   1.000  C 
  O114     1.0000 0.09529  0.67047  0.50000  Biso   1.000  O 
  C205     1.0000 0.09301  0.80840  0.45694  Biso   1.000  C 
  C206     1.0000 0.02415  0.83448  0.46746  Biso   1.000  C 
  H227     1.0000 0.09114  0.76664  0.42324  Biso   1.000  H 
  H228     1.0000 0.12215  0.84718  0.43480  Biso   1.000  H 
  H229     1.0000 0.00994  0.86152  0.42334  Biso   1.000  H 
  C207     1.0000 0.02044  0.88976  0.51528  Biso   1.000  C 
  H230     1.0000 0.98847  0.79486  0.47495  Biso   1.000  H 
  H231     1.0000 0.04556  0.88628  0.56071  Biso   1.000  H 
  H232     1.0000 0.96851  0.89729  0.52713  Biso   1.000  H 
  H233     1.0000 0.03875  0.93206  0.48915  Biso   1.000  H 
  C208     1.0000 0.41528  0.69840  0.46406  Biso   1.000  C 
  C209     1.0000 0.48245  0.70097  0.48971  Biso   1.000  C 
  H234     1.0000 0.40762  0.73149  0.42334  Biso   1.000  H 
  H235     1.0000 0.40762  0.64854  0.44613  Biso   1.000  H 
  H236     1.0000 0.51838  0.69008  0.45434  Biso   1.000  H 
  C210     1.0000 0.49882  0.64463  0.53863  Biso   1.000  C 
  H237     1.0000 0.49567  0.74852  0.51154  Biso   1.000  H 
  H238     1.0000 0.50368  0.59731  0.51482  Biso   1.000  H 
  H239     1.0000 0.46166  0.63921  0.57564  Biso   1.000  H 
  H240     1.0000 0.54531  0.65744  0.56044  Biso   1.000  H 
  C211     1.0000 0.34640  0.34640  0.00000  Biso   1.000  C 
  O115     1.0000 0.40471  0.32954  0.00000  Biso   1.000  O 
  O116     1.0000 0.32954  0.40471  0.00000  Biso   1.000  O 
  C212     1.0000 0.29500  0.29500  0.00000  Biso   1.000  C 
  C213     1.0000 0.23249  0.31563  0.00000  Biso   1.000  C 
  H241     1.0000 0.22128  0.36954  0.00000  Biso   1.000  H 
  O117     1.0000 0.11874  0.28444  0.01180  Biso   1.000  O 
  C214     1.0000 0.18442  0.26751  0.00000  Biso   1.000  C 
  C215     1.0000 0.20500  0.20500  0.00000  Biso   1.000  C 
  C216     1.0000 0.26751  0.18442  0.00000  Biso   1.000  C 
  C217     1.0000 0.31563  0.23249  0.00000  Biso   1.000  C 
  O118     1.0000 0.37871  0.21652  0.02558  Biso   1.000  O 
  H242     1.0000 0.27872  0.13051  0.00000  Biso   1.000  H 
  O119     1.0000 0.17046  0.09530  0.00000  Biso   1.000  O 
  C218     1.0000 0.15360  0.15360  0.00000  Biso   1.000  C 
  O120     1.0000 0.09529  0.17046  0.00000  Biso   1.000  O 
  C219     1.0000 0.09497  0.30735  0.95244  Biso   1.000  C 
  C220     1.0000 0.03260  0.34574  0.96284  Biso   1.000  C 
  H243     1.0000 0.08665  0.26742  0.91823  Biso   1.000  H 
  H244     1.0000 0.13084  0.34095  0.93115  Biso   1.000  H 
  H245     1.0000 0.02568  0.37723  0.91994  Biso   1.000  H 
  C221     1.0000 0.03275  0.38786  0.02248  Biso   1.000  C 
  H246     1.0000 0.98991  0.31205  0.96459  Biso   1.000  H 
  H247     1.0000 0.03436  0.35804  0.06519  Biso   1.000  H 
  H248     1.0000 0.98750  0.41816  0.02422  Biso   1.000  H 
  H249     1.0000 0.07382  0.42003  0.01958  Biso   1.000  H 
  C222     1.0000 0.41447  0.19709  0.97192  Biso   1.000  C 
  C223     1.0000 0.48109  0.17962  0.99917  Biso   1.000  C 
  H250     1.0000 0.41942  0.23462  0.93414  Biso   1.000  H 
  H251     1.0000 0.39366  0.15366  0.95083  Biso   1.000  H 
  H252     1.0000 0.51391  0.16725  0.95977  Biso   1.000  H 
  C224     1.0000 0.48144  0.12505  0.04685  Biso   1.000  C 
  H253     1.0000 0.50171  0.22354  0.02202  Biso   1.000  H 
  H254     1.0000 0.47355  0.07848  0.02188  Biso   1.000  H 
  H255     1.0000 0.44336  0.13280  0.08491  Biso   1.000  H 
  H256     1.0000 0.52860  0.12315  0.07183  Biso   1.000  H 
  C225     1.0000 0.00000  0.84640  0.15360  Biso   1.000  C 
  O121     1.0000 0.00000  0.90471  0.17046  Biso   1.000  O 
  O122     1.0000 0.00000  0.82954  0.09529  Biso   1.000  O 
  C226     1.0000 0.00000  0.79500  0.20500  Biso   1.000  C 
  C227     1.0000 0.00000  0.73249  0.18437  Biso   1.000  C 
  H257     1.0000 0.00000  0.72128  0.13046  Biso   1.000  H 
  O123     1.0000 0.97761  0.62164  0.21489  Biso   1.000  O 
  C228     1.0000 0.00000  0.68442  0.23249  Biso   1.000  C 
  C229     1.0000 0.00000  0.70500  0.29500  Biso   1.000  C 
  C230     1.0000 0.00000  0.76751  0.31558  Biso   1.000  C 
  C231     1.0000 0.00000  0.81563  0.26751  Biso   1.000  C 
  O124     1.0000 0.03104  0.87726  0.28262  Biso   1.000  O 
  H258     1.0000 0.00000  0.77872  0.36949  Biso   1.000  H 
  O125     1.0000 0.00000  0.67046  0.40470  Biso   1.000  O 
  C232     1.0000 0.00000  0.65360  0.34640  Biso   1.000  C 
  O126     1.0000 0.00000  0.59529  0.32954  Biso   1.000  O 
  C233     1.0000 0.90859  0.61804  0.22318  Biso   1.000  C 
  C234     1.0000 0.86444  0.67781  0.22647  Biso   1.000  C 
  H259     1.0000 0.90313  0.59114  0.26742  Biso   1.000  H 
  H260     1.0000 0.88939  0.58837  0.18238  Biso   1.000  H 
  H261     1.0000 0.83115  0.66662  0.26580  Biso   1.000  H 
  C235     1.0000 0.82942  0.68876  0.16398  Biso   1.000  C 
  H262     1.0000 0.88841  0.72394  0.23940  Biso   1.000  H 
  H263     1.0000 0.85932  0.71211  0.12726  Biso   1.000  H 
  H264     1.0000 0.79019  0.72062  0.17745  Biso   1.000  H 
  H265     1.0000 0.80661  0.64316  0.14277  Biso   1.000  H 
  C236     1.0000 0.09868  0.86315  0.28815  Biso   1.000  C 
  C237     1.0000 0.13502  0.85385  0.22401  Biso   1.000  C 
  H266     1.0000 0.11097  0.82044  0.31743  Biso   1.000  H 
  H267     1.0000 0.11811  0.90544  0.31419  Biso   1.000  H 
  H268     1.0000 0.11685  0.88706  0.18624  Biso   1.000  H 
  C238     1.0000 0.14167  0.78680  0.19445  Biso   1.000  C 
  H269     1.0000 0.18519  0.86840  0.23348  Biso   1.000  H 
  H270     1.0000 0.12083  0.74727  0.22182  Biso   1.000  H 
  H271     1.0000 0.19492  0.77556  0.18793  Biso   1.000  H 
  H272     1.0000 0.11909  0.79073  0.14657  Biso   1.000  H 
  C239     1.0000 0.00000  0.34640  0.65360  Biso   1.000  C 
  O127     1.0000 0.00000  0.40471  0.67046  Biso   1.000  O 
  O128     1.0000 0.00000  0.32954  0.59529  Biso   1.000  O 
  C240     1.0000 0.00000  0.29500  0.70500  Biso   1.000  C 
  C241     1.0000 0.00000  0.23249  0.68437  Biso   1.000  C 
  H273     1.0000 0.00000  0.22128  0.63046  Biso   1.000  H 
  O129     1.0000 0.96124  0.12676  0.71539  Biso   1.000  O 
  C242     1.0000 0.00000  0.18442  0.73248  Biso   1.000  C 
  C243     1.0000 0.00000  0.20500  0.79499  Biso   1.000  C 
  C244     1.0000 0.00000  0.26751  0.81558  Biso   1.000  C 
  C245     1.0000 0.00000  0.31563  0.76751  Biso   1.000  C 
  O130     1.0000 0.03442  0.37328  0.78473  Biso   1.000  O 
  H274     1.0000 0.00000  0.27872  0.86949  Biso   1.000  H 
  O131     1.0000 0.00000  0.17046  0.90470  Biso   1.000  O 
  C246     1.0000 0.00000  0.15360  0.84639  Biso   1.000  C 
  O132     1.0000 0.00000  0.09529  0.82953  Biso   1.000  O 
  C247     1.0000 0.89435  0.14032  0.72612  Biso   1.000  C 
  C248     1.0000 0.85623  0.13184  0.66411  Biso   1.000  C 
  H275     1.0000 0.88341  0.18966  0.74677  Biso   1.000  H 
  H276     1.0000 0.87882  0.10373  0.76254  Biso   1.000  H 
  H277     1.0000 0.87309  0.16677  0.62833  Biso   1.000  H 
  C249     1.0000 0.78544  0.14326  0.67039  Biso   1.000  C 
  H278     1.0000 0.86780  0.08368  0.64754  Biso   1.000  H 
  H279     1.0000 0.76210  0.11702  0.70912  Biso   1.000  H 
  H280     1.0000 0.76091  0.13370  0.62422  Biso   1.000  H 
  H281     1.0000 0.77896  0.19517  0.68308  Biso   1.000  H 
  C250     1.0000 0.10064  0.35619  0.78415  Biso   1.000  C 
  C251     1.0000 0.13738  0.35183  0.71588  Biso   1.000  C 
  H282     1.0000 0.11105  0.31385  0.81424  Biso   1.000  H 
  H283     1.0000 0.12285  0.39651  0.80996  Biso   1.000  H 
  H284     1.0000 0.11782  0.38927  0.68287  Biso   1.000  H 
  C252     1.0000 0.14684  0.28888  0.67723  Biso   1.000  C 
  H285     1.0000 0.18700  0.36778  0.72871  Biso   1.000  H 
  H286     1.0000 0.19654  0.28603  0.65999  Biso   1.000  H 
  H287     1.0000 0.11551  0.28681  0.63470  Biso   1.000  H 
  H288     1.0000 0.13637  0.24926  0.71202  Biso   1.000  H 
  C253     1.0000 0.50000  0.84640  0.65360  Biso   1.000  C 
  O133     1.0000 0.50000  0.90471  0.67046  Biso   1.000  O 
  O134     1.0000 0.50000  0.82954  0.59529  Biso   1.000  O 
  C254     1.0000 0.50000  0.79500  0.70500  Biso   1.000  C 
  C255     1.0000 0.50000  0.73249  0.68437  Biso   1.000  C 
  H289     1.0000 0.50000  0.72128  0.63046  Biso   1.000  H 
  O135     1.0000 0.46282  0.62712  0.71689  Biso   1.000  O 
  C256     1.0000 0.50000  0.68442  0.73248  Biso   1.000  C 
  C257     1.0000 0.50000  0.70500  0.79499  Biso   1.000  C 
  C258     1.0000 0.50000  0.76751  0.81558  Biso   1.000  C 
  C259     1.0000 0.50000  0.81563  0.76751  Biso   1.000  C 
  O136     1.0000 0.53656  0.87448  0.78241  Biso   1.000  O 
  H290     1.0000 0.50000  0.77872  0.86949  Biso   1.000  H 
  O137     1.0000 0.50000  0.67046  0.90470  Biso   1.000  O 
  C260     1.0000 0.50000  0.65360  0.84639  Biso   1.000  C 
  O138     1.0000 0.50000  0.59529  0.82953  Biso   1.000  O 
  C261     1.0000 0.39662  0.64150  0.72941  Biso   1.000  C 
  C262     1.0000 0.35740  0.65216  0.66875  Biso   1.000  C 
  H291     1.0000 0.38835  0.69073  0.75002  Biso   1.000  H 
  H292     1.0000 0.37526  0.60542  0.76278  Biso   1.000  H 
  H293     1.0000 0.37297  0.69900  0.64541  Biso   1.000  H 
  C263     1.0000 0.28443  0.66034  0.67778  Biso   1.000  C 
  H294     1.0000 0.36618  0.61397  0.63298  Biso   1.000  H 
  H295     1.0000 0.26838  0.62188  0.71008  Biso   1.000  H 
  H296     1.0000 0.26021  0.65511  0.63026  Biso   1.000  H 
  H297     1.0000 0.27445  0.70697  0.69975  Biso   1.000  H 
  C264     1.0000 0.60479  0.85978  0.78085  Biso   1.000  C 
  C265     1.0000 0.63952  0.85576  0.71516  Biso   1.000  C 
  H298     1.0000 0.61615  0.81654  0.80967  Biso   1.000  H 
  H299     1.0000 0.62920  0.89904  0.80732  Biso   1.000  H 
  H300     1.0000 0.61651  0.88557  0.67841  Biso   1.000  H 
  C266     1.0000 0.64341  0.78558  0.68920  Biso   1.000  C 
  H301     1.0000 0.69027  0.87242  0.72207  Biso   1.000  H 
  H302     1.0000 0.60453  0.77552  0.65494  Biso   1.000  H 
  H303     1.0000 0.64286  0.75070  0.72990  Biso   1.000  H 
  H304     1.0000 0.68703  0.77983  0.66258  Biso   1.000  H 
  C267     1.0000 0.50000  0.34640  0.15360  Biso   1.000  C 
  O139     1.0000 0.50000  0.40471  0.17046  Biso   1.000  O 
  O140     1.0000 0.50000  0.32954  0.09529  Biso   1.000  O 
  C268     1.0000 0.50000  0.29500  0.20500  Biso   1.000  C 
  C269     1.0000 0.50000  0.23249  0.18437  Biso   1.000  C 
  H305     1.0000 0.50000  0.22128  0.13046  Biso   1.000  H 
  O141     1.0000 0.47223  0.12250  0.21291  Biso   1.000  O 
  C270     1.0000 0.50000  0.18442  0.23249  Biso   1.000  C 
  C271     1.0000 0.50000  0.20500  0.29500  Biso   1.000  C 
  C272     1.0000 0.50000  0.26751  0.31558  Biso   1.000  C 
  C273     1.0000 0.50000  0.31563  0.26751  Biso   1.000  C 
  O142     1.0000 0.53736  0.37417  0.28538  Biso   1.000  O 
  H306     1.0000 0.50000  0.27872  0.36949  Biso   1.000  H 
  O143     1.0000 0.50000  0.17046  0.40470  Biso   1.000  O 
  C274     1.0000 0.50000  0.15360  0.34640  Biso   1.000  C 
  O144     1.0000 0.50000  0.09529  0.32954  Biso   1.000  O 
  C275     1.0000 0.40247  0.12382  0.21696  Biso   1.000  C 
  C276     1.0000 0.36719  0.18832  0.20998  Biso   1.000  C 
  H307     1.0000 0.38420  0.10277  0.26206  Biso   1.000  H 
  H308     1.0000 0.38809  0.09224  0.17634  Biso   1.000  H 
  H309     1.0000 0.35672  0.21452  0.25539  Biso   1.000  H 
  C277     1.0000 0.30772  0.17366  0.17344  Biso   1.000  C 
  H310     1.0000 0.38778  0.22130  0.17482  Biso   1.000  H 
  H311     1.0000 0.28194  0.13280  0.19667  Biso   1.000  H 
  H312     1.0000 0.31793  0.16242  0.12203  Biso   1.000  H 
  H313     1.0000 0.27685  0.21511  0.17335  Biso   1.000  H 
  C278     1.0000 0.60578  0.35641  0.28817  Biso   1.000  C 
  C279     1.0000 0.63824  0.34199  0.21914  Biso   1.000  C 
  H314     1.0000 0.61379  0.31616  0.32303  Biso   1.000  H 
  H315     1.0000 0.63149  0.39775  0.30763  Biso   1.000  H 
  H316     1.0000 0.61477  0.30090  0.19539  Biso   1.000  H 
  C280     1.0000 0.70803  0.32094  0.22225  Biso   1.000  C 
  H317     1.0000 0.63434  0.38244  0.18576  Biso   1.000  H 
  H318     1.0000 0.72613  0.32788  0.17214  Biso   1.000  H 
  H319     1.0000 0.71336  0.26995  0.23733  Biso   1.000  H 
  H320     1.0000 0.73693  0.34892  0.25917  Biso   1.000  H 
  C281     1.0000 0.00000  0.84640  0.84640  Biso   1.000  C 
  O145     1.0000 0.00000  0.90471  0.82954  Biso   1.000  O 
  O146     1.0000 0.00000  0.82954  0.90471  Biso   1.000  O 
  C282     1.0000 0.00000  0.79500  0.79500  Biso   1.000  C 
  C283     1.0000 0.00000  0.73249  0.81563  Biso   1.000  C 
  H321     1.0000 0.00000  0.72128  0.86954  Biso   1.000  H 
  O147     1.0000 0.01197  0.61779  0.78601  Biso   1.000  O 
  C284     1.0000 0.00000  0.68442  0.76752  Biso   1.000  C 
  C285     1.0000 0.00000  0.70500  0.70501  Biso   1.000  C 
  C286     1.0000 0.00000  0.76751  0.68442  Biso   1.000  C 
  C287     1.0000 0.00000  0.81563  0.73249  Biso   1.000  C 
  O148     1.0000 0.02783  0.87704  0.71528  Biso   1.000  O 
  H322     1.0000 0.00000  0.77872  0.63051  Biso   1.000  H 
  O149     1.0000 0.00000  0.67046  0.59530  Biso   1.000  O 
  C288     1.0000 0.00000  0.65360  0.65361  Biso   1.000  C 
  O150     1.0000 0.00000  0.59529  0.67047  Biso   1.000  O 
  C289     1.0000 0.95740  0.58996  0.81364  Biso   1.000  C 
  C290     1.0000 0.97542  0.52098  0.83812  Biso   1.000  C 
  H323     1.0000 0.91844  0.58813  0.77662  Biso   1.000  H 
  H324     1.0000 0.93975  0.61864  0.85567  Biso   1.000  H 
  H325     1.0000 0.93401  0.49677  0.86079  Biso   1.000  H 
  C291     1.0000 0.02795  0.51756  0.88657  Biso   1.000  C 
  H326     1.0000 0.99038  0.49304  0.79556  Biso   1.000  H 
  H327     1.0000 0.07337  0.49643  0.86694  Biso   1.000  H 
  H328     1.0000 0.01155  0.49177  0.93125  Biso   1.000  H 
  H329     1.0000 0.04070  0.56751  0.89940  Biso   1.000  H 
  C292     1.0000 0.98026  0.91462  0.68452  Biso   1.000  C 
  C293     1.0000 0.99769  0.98447  0.68670  Biso   1.000  C 
  H330     1.0000 0.93306  0.91087  0.70967  Biso   1.000  H 
  H331     1.0000 0.97398  0.89987  0.63506  Biso   1.000  H 
  H332     1.0000 0.95363  0.01290  0.67879  Biso   1.000  H 
  C294     1.0000 0.03869  0.00550  0.63079  Biso   1.000  C 
  H333     1.0000 0.02053  0.99729  0.73265  Biso   1.000  H 
  H334     1.0000 0.01108  0.99964  0.58442  Biso   1.000  H 
  H335     1.0000 0.08291  0.97653  0.62845  Biso   1.000  H 
  H336     1.0000 0.05387  0.05749  0.64049  Biso   1.000  H 
  C295     1.0000 0.00000  0.34640  0.34640  Biso   1.000  C 
  O151     1.0000 0.00000  0.40471  0.32954  Biso   1.000  O 
  O152     1.0000 0.00000  0.32954  0.40471  Biso   1.000  O 
  C296     1.0000 0.00000  0.29500  0.29500  Biso   1.000  C 
  C297     1.0000 0.00000  0.23249  0.31563  Biso   1.000  C 
  H337     1.0000 0.00000  0.22128  0.36954  Biso   1.000  H 
  O153     1.0000 0.01891  0.12153  0.28467  Biso   1.000  O 
  C298     1.0000 0.00000  0.18442  0.26751  Biso   1.000  C 
  C299     1.0000 0.00000  0.20500  0.20500  Biso   1.000  C 
  C300     1.0000 0.00000  0.26751  0.18442  Biso   1.000  C 
  C301     1.0000 0.00000  0.31563  0.23249  Biso   1.000  C 
  O154     1.0000 0.01868  0.38130  0.21499  Biso   1.000  O 
  H338     1.0000 0.00000  0.27872  0.13051  Biso   1.000  H 
  O155     1.0000 0.00000  0.17046  0.09530  Biso   1.000  O 
  C302     1.0000 0.00000  0.15360  0.15360  Biso   1.000  C 
  O156     1.0000 0.00000  0.09529  0.17046  Biso   1.000  O 
  C303     1.0000 0.96528  0.08860  0.30031  Biso   1.000  C 
  C304     1.0000 0.98887  0.02206  0.31702  Biso   1.000  C 
  H339     1.0000 0.92825  0.08762  0.26085  Biso   1.000  H 
  H340     1.0000 0.94544  0.10975  0.34365  Biso   1.000  H 
  H341     1.0000 0.95008  0.98740  0.32759  Biso   1.000  H 
  C305     1.0000 0.02659  0.02635  0.38050  Biso   1.000  C 
  H342     1.0000 0.01806  0.00292  0.27649  Biso   1.000  H 
  H343     1.0000 0.07107  0.05439  0.37289  Biso   1.000  H 
  H344     1.0000 0.03888  0.97721  0.39635  Biso   1.000  H 
  H345     1.0000 0.99624  0.04919  0.41842  Biso   1.000  H 
  C306     1.0000 0.96851  0.41974  0.19307  Biso   1.000  C 
  C307     1.0000 0.99442  0.49024  0.18414  Biso   1.000  C 
  H346     1.0000 0.92633  0.41734  0.22505  Biso   1.000  H 
  H347     1.0000 0.95585  0.40147  0.14399  Biso   1.000  H 
  H348     1.0000 0.95580  0.51770  0.16472  Biso   1.000  H 
  C308     1.0000 0.04964  0.49570  0.13420  Biso   1.000  C 
  H349     1.0000 0.00924  0.50918  0.23190  Biso   1.000  H 
  H350     1.0000 0.02832  0.50130  0.08518  Biso   1.000  H 
  H351     1.0000 0.08004  0.45092  0.13396  Biso   1.000  H 
  H352     1.0000 0.08053  0.53787  0.14280  Biso   1.000  H 
  C309     1.0000 0.50000  0.84640  0.34640  Biso   1.000  C 
  O157     1.0000 0.50000  0.90471  0.32954  Biso   1.000  O 
  O158     1.0000 0.50000  0.82954  0.40471  Biso   1.000  O 
  C310     1.0000 0.50000  0.79500  0.29500  Biso   1.000  C 
  C311     1.0000 0.50000  0.73249  0.31563  Biso   1.000  C 
  H353     1.0000 0.50000  0.72128  0.36954  Biso   1.000  H 
  O159     1.0000 0.51266  0.61954  0.28541  Biso   1.000  O 
  C312     1.0000 0.50000  0.68442  0.26751  Biso   1.000  C 
  C313     1.0000 0.50000  0.70500  0.20500  Biso   1.000  C 
  C314     1.0000 0.50000  0.76751  0.18442  Biso   1.000  C 
  C315     1.0000 0.50000  0.81563  0.23249  Biso   1.000  C 
  O160     1.0000 0.51760  0.87844  0.21528  Biso   1.000  O 
  H354     1.0000 0.50000  0.77872  0.13051  Biso   1.000  H 
  O161     1.0000 0.50000  0.67046  0.09530  Biso   1.000  O 
  C316     1.0000 0.50000  0.65360  0.15360  Biso   1.000  C 
  O162     1.0000 0.50000  0.59529  0.17046  Biso   1.000  O 
  C317     1.0000 0.45716  0.59010  0.30594  Biso   1.000  C 
  C318     1.0000 0.47870  0.52227  0.32678  Biso   1.000  C 
  H355     1.0000 0.42087  0.58646  0.26638  Biso   1.000  H 
  H356     1.0000 0.43561  0.61757  0.34695  Biso   1.000  H 
  H357     1.0000 0.43780  0.49971  0.35275  Biso   1.000  H 
  C319     1.0000 0.53149  0.52047  0.37711  Biso   1.000  C 
  H358     1.0000 0.49226  0.49321  0.28405  Biso   1.000  H 
  H359     1.0000 0.57653  0.54291  0.35959  Biso   1.000  H 
  H360     1.0000 0.54162  0.46887  0.39031  Biso   1.000  H 
  H361     1.0000 0.51243  0.54747  0.41901  Biso   1.000  H 
  C320     1.0000 0.46387  0.91821  0.20268  Biso   1.000  C 
  C321     1.0000 0.49189  0.98509  0.19148  Biso   1.000  C 
  H362     1.0000 0.42818  0.91770  0.24167  Biso   1.000  H 
  H363     1.0000 0.44087  0.90526  0.15721  Biso   1.000  H 
  H364     1.0000 0.45421  0.01659  0.17461  Biso   1.000  H 
  C322     1.0000 0.54077  0.98730  0.13718  Biso   1.000  C 
  H365     1.0000 0.51728  0.00442  0.23458  Biso   1.000  H 
  H366     1.0000 0.51549  0.99581  0.09081  Biso   1.000  H 
  H367     1.0000 0.56938  0.94256  0.13384  Biso   1.000  H 
  H368     1.0000 0.57686  0.02599  0.14229  Biso   1.000  H 
  C323     1.0000 0.50000  0.34640  0.84640  Biso   1.000  C 
  O163     1.0000 0.50000  0.40471  0.82954  Biso   1.000  O 
  O164     1.0000 0.50000  0.32954  0.90471  Biso   1.000  O 
  C324     1.0000 0.50000  0.29500  0.79500  Biso   1.000  C 
  C325     1.0000 0.50000  0.23249  0.81563  Biso   1.000  C 
  H369     1.0000 0.50000  0.22128  0.86954  Biso   1.000  H 
  O165     1.0000 0.51643  0.11923  0.78409  Biso   1.000  O 
  C326     1.0000 0.50000  0.18442  0.76752  Biso   1.000  C 
  C327     1.0000 0.50000  0.20500  0.70501  Biso   1.000  C 
  C328     1.0000 0.50000  0.26751  0.68442  Biso   1.000  C 
  C329     1.0000 0.50000  0.31563  0.73249  Biso   1.000  C 
  O166     1.0000 0.52071  0.37956  0.71460  Biso   1.000  O 
  H370     1.0000 0.50000  0.27872  0.63051  Biso   1.000  H 
  O167     1.0000 0.50000  0.17046  0.59530  Biso   1.000  O 
  C330     1.0000 0.50000  0.15360  0.65361  Biso   1.000  C 
  O168     1.0000 0.50000  0.09529  0.67047  Biso   1.000  O 
  C331     1.0000 0.46420  0.09010  0.81459  Biso   1.000  C 
  C332     1.0000 0.48394  0.02186  0.83359  Biso   1.000  C 
  H371     1.0000 0.41934  0.08870  0.78515  Biso   1.000  H 
  H372     1.0000 0.45392  0.11693  0.85912  Biso   1.000  H 
  H373     1.0000 0.44128  0.99713  0.85366  Biso   1.000  H 
  C333     1.0000 0.53339  0.02277  0.88861  Biso   1.000  C 
  H374     1.0000 0.50108  0.99205  0.79230  Biso   1.000  H 
  H375     1.0000 0.57877  0.04802  0.87998  Biso   1.000  H 
  H376     1.0000 0.54198  0.97189  0.90077  Biso   1.000  H 
  H377     1.0000 0.50836  0.04576  0.92876  Biso   1.000  H 
  C334     1.0000 0.47046  0.41861  0.69149  Biso   1.000  C 
  C335     1.0000 0.49367  0.48771  0.69363  Biso   1.000  C 
  H378     1.0000 0.42642  0.41530  0.72179  Biso   1.000  H 
  H379     1.0000 0.45628  0.40661  0.64249  Biso   1.000  H 
  H380     1.0000 0.45313  0.51914  0.68257  Biso   1.000  H 
  C336     1.0000 0.54048  0.50615  0.63849  Biso   1.000  C 
  H381     1.0000 0.51290  0.49992  0.74190  Biso   1.000  H 
  H382     1.0000 0.51699  0.51371  0.59251  Biso   1.000  H 
  H383     1.0000 0.58008  0.46989  0.63272  Biso   1.000  H 
  H384     1.0000 0.56231  0.55299  0.65251  Biso   1.000  H 
