data_image0
_cell_length_a       26.896
_cell_length_b       26.896
_cell_length_c       26.896
_cell_angle_alpha    90
_cell_angle_beta     90
_cell_angle_gamma    90

_symmetry_space_group_name_H-M    "P 1"
_symmetry_int_tables_number       1

loop_
  _symmetry_equiv_pos_as_xyz
  'x, y, z'

loop_
  _atom_site_label
  _atom_site_occupancy
  _atom_site_fract_x
  _atom_site_fract_y
  _atom_site_fract_z
  _atom_site_thermal_displace_type
  _atom_site_B_iso_or_equiv
  _atom_site_type_symbol
  Zr1      1.0000 0.09204  0.00000  0.00000  Biso   1.000  Zr
  Zr2      1.0000 0.90796  0.00000  0.00000  Biso   1.000  Zr
  Zr3      1.0000 0.00000  0.09204  0.00000  Biso   1.000  Zr
  Zr4      1.0000 0.00000  0.90796  0.00000  Biso   1.000  Zr
  Zr5      1.0000 0.00000  0.00000  0.09204  Biso   1.000  Zr
  Zr6      1.0000 0.00000  0.00000  0.90796  Biso   1.000  Zr
  Zr7      1.0000 0.09204  0.50000  0.50000  Biso   1.000  Zr
  Zr8      1.0000 0.90796  0.50000  0.50000  Biso   1.000  Zr
  Zr9      1.0000 0.00000  0.59204  0.50000  Biso   1.000  Zr
  Zr10     1.0000 0.00000  0.40796  0.50000  Biso   1.000  Zr
  Zr11     1.0000 0.00000  0.50000  0.59204  Biso   1.000  Zr
  Zr12     1.0000 0.00000  0.50000  0.40796  Biso   1.000  Zr
  Zr13     1.0000 0.59204  0.00000  0.50000  Biso   1.000  Zr
  Zr14     1.0000 0.40796  0.00000  0.50000  Biso   1.000  Zr
  Zr15     1.0000 0.50000  0.09204  0.50000  Biso   1.000  Zr
  Zr16     1.0000 0.50000  0.90796  0.50000  Biso   1.000  Zr
  Zr17     1.0000 0.50000  0.00000  0.59204  Biso   1.000  Zr
  Zr18     1.0000 0.50000  0.00000  0.40796  Biso   1.000  Zr
  Zr19     1.0000 0.59204  0.50000  0.00000  Biso   1.000  Zr
  Zr20     1.0000 0.40796  0.50000  0.00000  Biso   1.000  Zr
  Zr21     1.0000 0.50000  0.59204  0.00000  Biso   1.000  Zr
  Zr22     1.0000 0.50000  0.40796  0.00000  Biso   1.000  Zr
  Zr23     1.0000 0.50000  0.50000  0.09204  Biso   1.000  Zr
  Zr24     1.0000 0.50000  0.50000  0.90796  Biso   1.000  Zr
  O1       1.0000 0.04540  0.04540  0.04540  Biso   1.000  O 
  O2       1.0000 0.95460  0.95460  0.04540  Biso   1.000  O 
  O3       1.0000 0.95460  0.04540  0.95460  Biso   1.000  O 
  O4       1.0000 0.04540  0.95460  0.95460  Biso   1.000  O 
  O5       1.0000 0.04540  0.04540  0.95460  Biso   1.000  O 
  O6       1.0000 0.95460  0.95460  0.95460  Biso   1.000  O 
  O7       1.0000 0.04540  0.95460  0.04540  Biso   1.000  O 
  O8       1.0000 0.95460  0.04540  0.04540  Biso   1.000  O 
  O9       1.0000 0.04540  0.54540  0.54540  Biso   1.000  O 
  O10      1.0000 0.95460  0.45460  0.54540  Biso   1.000  O 
  O11      1.0000 0.95460  0.54540  0.45460  Biso   1.000  O 
  O12      1.0000 0.04540  0.45460  0.45460  Biso   1.000  O 
  O13      1.0000 0.04540  0.54540  0.45460  Biso   1.000  O 
  O14      1.0000 0.95460  0.45460  0.45460  Biso   1.000  O 
  O15      1.0000 0.04540  0.45460  0.54540  Biso   1.000  O 
  O16      1.0000 0.95460  0.54540  0.54540  Biso   1.000  O 
  O17      1.0000 0.54540  0.04540  0.54540  Biso   1.000  O 
  O18      1.0000 0.45460  0.95460  0.54540  Biso   1.000  O 
  O19      1.0000 0.45460  0.04540  0.45460  Biso   1.000  O 
  O20      1.0000 0.54540  0.95460  0.45460  Biso   1.000  O 
  O21      1.0000 0.54540  0.04540  0.45460  Biso   1.000  O 
  O22      1.0000 0.45460  0.95460  0.45460  Biso   1.000  O 
  O23      1.0000 0.54540  0.95460  0.54540  Biso   1.000  O 
  O24      1.0000 0.45460  0.04540  0.54540  Biso   1.000  O 
  O25      1.0000 0.54540  0.54540  0.04540  Biso   1.000  O 
  O26      1.0000 0.45460  0.45460  0.04540  Biso   1.000  O 
  O27      1.0000 0.45460  0.54540  0.95460  Biso   1.000  O 
  O28      1.0000 0.54540  0.45460  0.95460  Biso   1.000  O 
  O29      1.0000 0.54540  0.54540  0.95460  Biso   1.000  O 
  O30      1.0000 0.45460  0.45460  0.95460  Biso   1.000  O 
  O31      1.0000 0.54540  0.45460  0.04540  Biso   1.000  O 
  O32      1.0000 0.45460  0.54540  0.04540  Biso   1.000  O 
  O33      1.0000 0.13260  0.00000  0.07190  Biso   1.000  O 
  C1       1.0000 0.11720  0.00000  0.11720  Biso   1.000  C 
  O34      1.0000 0.07190  0.00000  0.13260  Biso   1.000  O 
  C2       1.0000 0.15650  0.00000  0.15650  Biso   1.000  C 
  C3       1.0000 0.20580  0.00000  0.14470  Biso   1.000  C 
  C4       1.0000 0.14470  0.00000  0.20580  Biso   1.000  C 
  C5       1.0000 0.24200  0.00000  0.17950  Biso   1.000  C 
  H1       1.0000 0.21490  0.00000  0.11140  Biso   1.000  H 
  C6       1.0000 0.17950  0.00000  0.24200  Biso   1.000  C 
  H2       1.0000 0.11140  0.00000  0.21490  Biso   1.000  H 
  C7       1.0000 0.23070  0.00000  0.23070  Biso   1.000  C 
  C8       1.0000 0.26930  0.00000  0.26930  Biso   1.000  C 
  H3       1.0000 0.27510  0.00000  0.16950  Biso   1.000  H 
  C9       1.0000 0.32050  0.00000  0.25800  Biso   1.000  C 
  N1       1.0000 0.15809  0.00778  0.29446  Biso   1.000  N 
  C10      1.0000 0.25800  0.00000  0.32050  Biso   1.000  C 
  C11      1.0000 0.35530  0.00000  0.29420  Biso   1.000  C 
  N2       1.0000 0.34113  0.01607  0.20629  Biso   1.000  N 
  C12      1.0000 0.29420  0.00000  0.35530  Biso   1.000  C 
  H4       1.0000 0.22490  0.00000  0.33050  Biso   1.000  H 
  C13      1.0000 0.34350  0.00000  0.34350  Biso   1.000  C 
  C14      1.0000 0.38280  0.00000  0.38280  Biso   1.000  C 
  H5       1.0000 0.38860  0.00000  0.28510  Biso   1.000  H 
  H6       1.0000 0.28510  0.00000  0.38860  Biso   1.000  H 
  O35      1.0000 0.42810  0.00000  0.36740  Biso   1.000  O 
  O36      1.0000 0.36740  0.00000  0.42810  Biso   1.000  O 
  C15      1.0000 0.38214  0.98347  0.18759  Biso   1.000  C 
  C16      1.0000 0.13153  0.05567  0.30064  Biso   1.000  C 
  C17      1.0000 0.41114  0.00276  0.14108  Biso   1.000  C 
  C18      1.0000 0.08601  0.05074  0.33456  Biso   1.000  C 
  H7       1.0000 0.13648  0.97699  0.30466  Biso   1.000  H 
  H8       1.0000 0.35291  0.05301  0.20722  Biso   1.000  H 
  C19      1.0000 0.10191  0.04256  0.38904  Biso   1.000  C 
  H9       1.0000 0.15778  0.08371  0.31590  Biso   1.000  H 
  H10      1.0000 0.36565  0.94764  0.17580  Biso   1.000  H 
  H11      1.0000 0.09030  0.00513  0.40172  Biso   1.000  H 
  H12      1.0000 0.08408  0.07003  0.41356  Biso   1.000  H 
  H13      1.0000 0.14279  0.04669  0.39391  Biso   1.000  H 
  C20      1.0000 0.43872  0.05206  0.14697  Biso   1.000  C 
  H14      1.0000 0.41228  0.08212  0.15674  Biso   1.000  H 
  H15      1.0000 0.45690  0.06218  0.11183  Biso   1.000  H 
  H16      1.0000 0.46702  0.04811  0.17700  Biso   1.000  H 
  H17      1.0000 0.41080  0.97567  0.21570  Biso   1.000  H 
  H18      1.0000 0.11702  0.07012  0.26482  Biso   1.000  H 
  H19      1.0000 0.38418  0.00617  0.11013  Biso   1.000  H 
  H20      1.0000 0.43974  0.97464  0.13004  Biso   1.000  H 
  H21      1.0000 0.06230  0.01926  0.32173  Biso   1.000  H 
  H22      1.0000 0.06417  0.08574  0.33183  Biso   1.000  H 
  O37      1.0000 0.86740  0.00000  0.07190  Biso   1.000  O 
  C21      1.0000 0.88280  0.00000  0.11720  Biso   1.000  C 
  O38      1.0000 0.92810  0.00000  0.13260  Biso   1.000  O 
  C22      1.0000 0.84350  0.00000  0.15650  Biso   1.000  C 
  C23      1.0000 0.79420  0.00000  0.14470  Biso   1.000  C 
  C24      1.0000 0.85530  0.00000  0.20580  Biso   1.000  C 
  C25      1.0000 0.75800  0.00000  0.17950  Biso   1.000  C 
  H23      1.0000 0.78510  0.00000  0.11140  Biso   1.000  H 
  C26      1.0000 0.82050  0.00000  0.24200  Biso   1.000  C 
  H24      1.0000 0.88860  0.00000  0.21490  Biso   1.000  H 
  C27      1.0000 0.76930  0.00000  0.23070  Biso   1.000  C 
  C28      1.0000 0.73070  0.00000  0.26930  Biso   1.000  C 
  H25      1.0000 0.72490  0.00000  0.16950  Biso   1.000  H 
  C29      1.0000 0.67950  0.00000  0.25800  Biso   1.000  C 
  N3       1.0000 0.84191  0.99222  0.29446  Biso   1.000  N 
  C30      1.0000 0.74200  0.00000  0.32050  Biso   1.000  C 
  C31      1.0000 0.64470  0.00000  0.29420  Biso   1.000  C 
  N4       1.0000 0.65887  0.98393  0.20629  Biso   1.000  N 
  C32      1.0000 0.70580  0.00000  0.35530  Biso   1.000  C 
  H26      1.0000 0.77510  0.00000  0.33050  Biso   1.000  H 
  C33      1.0000 0.65650  0.00000  0.34350  Biso   1.000  C 
  C34      1.0000 0.61720  0.00000  0.38280  Biso   1.000  C 
  H27      1.0000 0.61140  0.00000  0.28510  Biso   1.000  H 
  H28      1.0000 0.71490  0.00000  0.38860  Biso   1.000  H 
  O39      1.0000 0.57190  0.00000  0.36740  Biso   1.000  O 
  O40      1.0000 0.63260  0.00000  0.42810  Biso   1.000  O 
  C35      1.0000 0.61786  0.01653  0.18759  Biso   1.000  C 
  C36      1.0000 0.86847  0.94433  0.30064  Biso   1.000  C 
  C37      1.0000 0.58886  0.99724  0.14108  Biso   1.000  C 
  C38      1.0000 0.91399  0.94926  0.33456  Biso   1.000  C 
  H29      1.0000 0.86352  0.02301  0.30466  Biso   1.000  H 
  H30      1.0000 0.64709  0.94699  0.20722  Biso   1.000  H 
  C39      1.0000 0.89809  0.95744  0.38904  Biso   1.000  C 
  H31      1.0000 0.84222  0.91629  0.31590  Biso   1.000  H 
  H32      1.0000 0.63435  0.05236  0.17580  Biso   1.000  H 
  H33      1.0000 0.90970  0.99487  0.40172  Biso   1.000  H 
  H34      1.0000 0.91592  0.92996  0.41356  Biso   1.000  H 
  H35      1.0000 0.85721  0.95331  0.39391  Biso   1.000  H 
  C40      1.0000 0.56128  0.94794  0.14697  Biso   1.000  C 
  H36      1.0000 0.58772  0.91788  0.15674  Biso   1.000  H 
  H37      1.0000 0.54310  0.93782  0.11183  Biso   1.000  H 
  H38      1.0000 0.53298  0.95189  0.17700  Biso   1.000  H 
  H39      1.0000 0.58920  0.02433  0.21570  Biso   1.000  H 
  H40      1.0000 0.88298  0.92988  0.26482  Biso   1.000  H 
  H41      1.0000 0.61582  0.99383  0.11013  Biso   1.000  H 
  H42      1.0000 0.56026  0.02536  0.13004  Biso   1.000  H 
  H43      1.0000 0.93770  0.98074  0.32173  Biso   1.000  H 
  H44      1.0000 0.93583  0.91425  0.33183  Biso   1.000  H 
  O41      1.0000 0.86740  0.00000  0.92810  Biso   1.000  O 
  C41      1.0000 0.88280  0.00000  0.88280  Biso   1.000  C 
  O42      1.0000 0.92810  0.00000  0.86740  Biso   1.000  O 
  C42      1.0000 0.84350  0.00000  0.84350  Biso   1.000  C 
  C43      1.0000 0.79420  0.00000  0.85530  Biso   1.000  C 
  C44      1.0000 0.85530  0.00000  0.79420  Biso   1.000  C 
  C45      1.0000 0.75800  0.00000  0.82050  Biso   1.000  C 
  H45      1.0000 0.78510  0.00000  0.88860  Biso   1.000  H 
  C46      1.0000 0.82050  0.00000  0.75800  Biso   1.000  C 
  H46      1.0000 0.88860  0.00000  0.78510  Biso   1.000  H 
  C47      1.0000 0.76930  0.00000  0.76930  Biso   1.000  C 
  C48      1.0000 0.73070  0.00000  0.73070  Biso   1.000  C 
  H47      1.0000 0.72490  0.00000  0.83050  Biso   1.000  H 
  C49      1.0000 0.67950  0.00000  0.74200  Biso   1.000  C 
  N5       1.0000 0.84191  0.00778  0.70554  Biso   1.000  N 
  C50      1.0000 0.74200  0.00000  0.67950  Biso   1.000  C 
  C51      1.0000 0.64470  0.00000  0.70580  Biso   1.000  C 
  N6       1.0000 0.65887  0.01607  0.79371  Biso   1.000  N 
  C52      1.0000 0.70580  0.00000  0.64470  Biso   1.000  C 
  H48      1.0000 0.77510  0.00000  0.66950  Biso   1.000  H 
  C53      1.0000 0.65650  0.00000  0.65650  Biso   1.000  C 
  C54      1.0000 0.61720  0.00000  0.61720  Biso   1.000  C 
  H49      1.0000 0.61140  0.00000  0.71490  Biso   1.000  H 
  H50      1.0000 0.71490  0.00000  0.61140  Biso   1.000  H 
  O43      1.0000 0.57190  0.00000  0.63260  Biso   1.000  O 
  O44      1.0000 0.63260  0.00000  0.57190  Biso   1.000  O 
  C55      1.0000 0.61786  0.98347  0.81241  Biso   1.000  C 
  C56      1.0000 0.86847  0.05567  0.69936  Biso   1.000  C 
  C57      1.0000 0.58886  0.00276  0.85892  Biso   1.000  C 
  C58      1.0000 0.91399  0.05074  0.66544  Biso   1.000  C 
  H51      1.0000 0.86352  0.97699  0.69534  Biso   1.000  H 
  H52      1.0000 0.64709  0.05301  0.79278  Biso   1.000  H 
  C59      1.0000 0.89809  0.04256  0.61096  Biso   1.000  C 
  H53      1.0000 0.84222  0.08371  0.68411  Biso   1.000  H 
  H54      1.0000 0.63435  0.94764  0.82420  Biso   1.000  H 
  H55      1.0000 0.90970  0.00513  0.59828  Biso   1.000  H 
  H56      1.0000 0.91592  0.07003  0.58644  Biso   1.000  H 
  H57      1.0000 0.85721  0.04669  0.60609  Biso   1.000  H 
  C60      1.0000 0.56128  0.05206  0.85303  Biso   1.000  C 
  H58      1.0000 0.58772  0.08212  0.84326  Biso   1.000  H 
  H59      1.0000 0.54310  0.06218  0.88817  Biso   1.000  H 
  H60      1.0000 0.53298  0.04811  0.82300  Biso   1.000  H 
  H61      1.0000 0.58920  0.97567  0.78430  Biso   1.000  H 
  H62      1.0000 0.88298  0.07012  0.73518  Biso   1.000  H 
  H63      1.0000 0.61582  0.00617  0.88987  Biso   1.000  H 
  H64      1.0000 0.56026  0.97464  0.86996  Biso   1.000  H 
  H65      1.0000 0.93770  0.01926  0.67828  Biso   1.000  H 
  H66      1.0000 0.93583  0.08574  0.66817  Biso   1.000  H 
  O45      1.0000 0.13260  0.00000  0.92810  Biso   1.000  O 
  C61      1.0000 0.11720  0.00000  0.88280  Biso   1.000  C 
  O46      1.0000 0.07190  0.00000  0.86740  Biso   1.000  O 
  C62      1.0000 0.15650  0.00000  0.84350  Biso   1.000  C 
  C63      1.0000 0.20580  0.00000  0.85530  Biso   1.000  C 
  C64      1.0000 0.14470  0.00000  0.79420  Biso   1.000  C 
  C65      1.0000 0.24200  0.00000  0.82050  Biso   1.000  C 
  H67      1.0000 0.21490  0.00000  0.88860  Biso   1.000  H 
  C66      1.0000 0.17950  0.00000  0.75800  Biso   1.000  C 
  H68      1.0000 0.11140  0.00000  0.78510  Biso   1.000  H 
  C67      1.0000 0.23070  0.00000  0.76930  Biso   1.000  C 
  C68      1.0000 0.26930  0.00000  0.73070  Biso   1.000  C 
  H69      1.0000 0.27510  0.00000  0.83050  Biso   1.000  H 
  C69      1.0000 0.32050  0.00000  0.74200  Biso   1.000  C 
  N7       1.0000 0.15809  0.99222  0.70554  Biso   1.000  N 
  C70      1.0000 0.25800  0.00000  0.67950  Biso   1.000  C 
  C71      1.0000 0.35530  0.00000  0.70580  Biso   1.000  C 
  N8       1.0000 0.34113  0.98393  0.79371  Biso   1.000  N 
  C72      1.0000 0.29420  0.00000  0.64470  Biso   1.000  C 
  H70      1.0000 0.22490  0.00000  0.66950  Biso   1.000  H 
  C73      1.0000 0.34350  0.00000  0.65650  Biso   1.000  C 
  C74      1.0000 0.38280  0.00000  0.61720  Biso   1.000  C 
  H71      1.0000 0.38860  0.00000  0.71490  Biso   1.000  H 
  H72      1.0000 0.28510  0.00000  0.61140  Biso   1.000  H 
  O47      1.0000 0.42810  0.00000  0.63260  Biso   1.000  O 
  O48      1.0000 0.36740  0.00000  0.57190  Biso   1.000  O 
  C75      1.0000 0.38214  0.01653  0.81241  Biso   1.000  C 
  C76      1.0000 0.13153  0.94433  0.69936  Biso   1.000  C 
  C77      1.0000 0.41114  0.99724  0.85892  Biso   1.000  C 
  C78      1.0000 0.08601  0.94926  0.66544  Biso   1.000  C 
  H73      1.0000 0.13648  0.02301  0.69534  Biso   1.000  H 
  H74      1.0000 0.35291  0.94699  0.79278  Biso   1.000  H 
  C79      1.0000 0.10191  0.95744  0.61096  Biso   1.000  C 
  H75      1.0000 0.15778  0.91629  0.68411  Biso   1.000  H 
  H76      1.0000 0.36565  0.05236  0.82420  Biso   1.000  H 
  H77      1.0000 0.09030  0.99487  0.59828  Biso   1.000  H 
  H78      1.0000 0.08408  0.92996  0.58644  Biso   1.000  H 
  H79      1.0000 0.14279  0.95331  0.60609  Biso   1.000  H 
  C80      1.0000 0.43872  0.94794  0.85303  Biso   1.000  C 
  H80      1.0000 0.41228  0.91788  0.84326  Biso   1.000  H 
  H81      1.0000 0.45690  0.93782  0.88817  Biso   1.000  H 
  H82      1.0000 0.46702  0.95189  0.82300  Biso   1.000  H 
  H83      1.0000 0.41080  0.02433  0.78430  Biso   1.000  H 
  H84      1.0000 0.11702  0.92988  0.73518  Biso   1.000  H 
  H85      1.0000 0.38418  0.99383  0.88987  Biso   1.000  H 
  H86      1.0000 0.43974  0.02536  0.86996  Biso   1.000  H 
  H87      1.0000 0.06230  0.98074  0.67828  Biso   1.000  H 
  H88      1.0000 0.06417  0.91425  0.66817  Biso   1.000  H 
  O49      1.0000 0.07190  0.13260  0.00000  Biso   1.000  O 
  C81      1.0000 0.11720  0.11720  0.00000  Biso   1.000  C 
  O50      1.0000 0.13260  0.07190  0.00000  Biso   1.000  O 
  C82      1.0000 0.15650  0.15650  0.00000  Biso   1.000  C 
  C83      1.0000 0.14470  0.20580  0.00000  Biso   1.000  C 
  C84      1.0000 0.20580  0.14470  0.00000  Biso   1.000  C 
  C85      1.0000 0.17950  0.24200  0.00000  Biso   1.000  C 
  H89      1.0000 0.11140  0.21490  0.00000  Biso   1.000  H 
  C86      1.0000 0.24200  0.17950  0.00000  Biso   1.000  C 
  H90      1.0000 0.21490  0.11140  0.00000  Biso   1.000  H 
  C87      1.0000 0.23070  0.23070  0.00000  Biso   1.000  C 
  C88      1.0000 0.26930  0.26930  0.00000  Biso   1.000  C 
  H91      1.0000 0.16950  0.27510  0.00000  Biso   1.000  H 
  C89      1.0000 0.25800  0.32050  0.00000  Biso   1.000  C 
  N9       1.0000 0.29425  0.15752  0.99602  Biso   1.000  N 
  C90      1.0000 0.32050  0.25800  0.00000  Biso   1.000  C 
  C91      1.0000 0.29420  0.35530  0.00000  Biso   1.000  C 
  N10      1.0000 0.20524  0.34200  0.00439  Biso   1.000  N 
  C92      1.0000 0.35530  0.29420  0.00000  Biso   1.000  C 
  H92      1.0000 0.33050  0.22490  0.00000  Biso   1.000  H 
  C93      1.0000 0.34350  0.34350  0.00000  Biso   1.000  C 
  C94      1.0000 0.38280  0.38280  0.00000  Biso   1.000  C 
  H93      1.0000 0.28510  0.38860  0.00000  Biso   1.000  H 
  H94      1.0000 0.38860  0.28510  0.00000  Biso   1.000  H 
  O51      1.0000 0.36740  0.42810  0.00000  Biso   1.000  O 
  O52      1.0000 0.42810  0.36740  0.00000  Biso   1.000  O 
  C95      1.0000 0.18668  0.36204  0.95665  Biso   1.000  C 
  C96      1.0000 0.30616  0.13130  0.04258  Biso   1.000  C 
  C97      1.0000 0.13342  0.38288  0.96023  Biso   1.000  C 
  C98      1.0000 0.34512  0.09055  0.03660  Biso   1.000  C 
  H95      1.0000 0.29571  0.13272  0.96593  Biso   1.000  H 
  H96      1.0000 0.20460  0.36911  0.03218  Biso   1.000  H 
  C99      1.0000 0.39463  0.10933  0.01586  Biso   1.000  C 
  H97      1.0000 0.31887  0.15925  0.07014  Biso   1.000  H 
  H98      1.0000 0.18583  0.33148  0.92903  Biso   1.000  H 
  H99      1.0000 0.39439  0.10667  0.97487  Biso   1.000  H 
  H100     1.0000 0.42475  0.08522  0.03035  Biso   1.000  H 
  H101     1.0000 0.40273  0.14822  0.02735  Biso   1.000  H 
  C100     1.0000 0.13162  0.43372  0.98496  Biso   1.000  C 
  H102     1.0000 0.14554  0.43088  0.02351  Biso   1.000  H 
  H103     1.0000 0.09226  0.44665  0.98551  Biso   1.000  H 
  H104     1.0000 0.15468  0.46112  0.96462  Biso   1.000  H 
  H105     1.0000 0.21194  0.39122  0.94210  Biso   1.000  H 
  H106     1.0000 0.27346  0.11187  0.05863  Biso   1.000  H 
  H107     1.0000 0.11120  0.35657  0.98369  Biso   1.000  H 
  H108     1.0000 0.11628  0.38522  0.92307  Biso   1.000  H 
  H109     1.0000 0.33063  0.05975  0.01308  Biso   1.000  H 
  H110     1.0000 0.35245  0.07591  0.07430  Biso   1.000  H 
  O53      1.0000 0.07190  0.86740  0.00000  Biso   1.000  O 
  C101     1.0000 0.11720  0.88280  0.00000  Biso   1.000  C 
  O54      1.0000 0.13260  0.92810  0.00000  Biso   1.000  O 
  C102     1.0000 0.15650  0.84350  0.00000  Biso   1.000  C 
  C103     1.0000 0.14470  0.79420  0.00000  Biso   1.000  C 
  C104     1.0000 0.20580  0.85530  0.00000  Biso   1.000  C 
  C105     1.0000 0.17950  0.75800  0.00000  Biso   1.000  C 
  H111     1.0000 0.11140  0.78510  0.00000  Biso   1.000  H 
  C106     1.0000 0.24200  0.82050  0.00000  Biso   1.000  C 
  H112     1.0000 0.21490  0.88860  0.00000  Biso   1.000  H 
  C107     1.0000 0.23070  0.76930  0.00000  Biso   1.000  C 
  C108     1.0000 0.26930  0.73070  0.00000  Biso   1.000  C 
  H113     1.0000 0.16950  0.72490  0.00000  Biso   1.000  H 
  C109     1.0000 0.25800  0.67950  0.00000  Biso   1.000  C 
  N11      1.0000 0.29425  0.84248  0.00398  Biso   1.000  N 
  C110     1.0000 0.32050  0.74200  0.00000  Biso   1.000  C 
  C111     1.0000 0.29420  0.64470  0.00000  Biso   1.000  C 
  N12      1.0000 0.20524  0.65800  0.99561  Biso   1.000  N 
  C112     1.0000 0.35530  0.70580  0.00000  Biso   1.000  C 
  H114     1.0000 0.33050  0.77510  0.00000  Biso   1.000  H 
  C113     1.0000 0.34350  0.65650  0.00000  Biso   1.000  C 
  C114     1.0000 0.38280  0.61720  0.00000  Biso   1.000  C 
  H115     1.0000 0.28510  0.61140  0.00000  Biso   1.000  H 
  H116     1.0000 0.38860  0.71490  0.00000  Biso   1.000  H 
  O55      1.0000 0.36740  0.57190  0.00000  Biso   1.000  O 
  O56      1.0000 0.42810  0.63260  0.00000  Biso   1.000  O 
  C115     1.0000 0.18668  0.63795  0.04335  Biso   1.000  C 
  C116     1.0000 0.30616  0.86870  0.95742  Biso   1.000  C 
  C117     1.0000 0.13342  0.61712  0.03977  Biso   1.000  C 
  C118     1.0000 0.34512  0.90945  0.96340  Biso   1.000  C 
  H117     1.0000 0.29571  0.86728  0.03407  Biso   1.000  H 
  H118     1.0000 0.20460  0.63089  0.96782  Biso   1.000  H 
  C119     1.0000 0.39463  0.89067  0.98414  Biso   1.000  C 
  H119     1.0000 0.31887  0.84075  0.92986  Biso   1.000  H 
  H120     1.0000 0.18583  0.66852  0.07097  Biso   1.000  H 
  H121     1.0000 0.39439  0.89333  0.02513  Biso   1.000  H 
  H122     1.0000 0.42475  0.91478  0.96965  Biso   1.000  H 
  H123     1.0000 0.40273  0.85178  0.97265  Biso   1.000  H 
  C120     1.0000 0.13162  0.56628  0.01504  Biso   1.000  C 
  H124     1.0000 0.14554  0.56912  0.97649  Biso   1.000  H 
  H125     1.0000 0.09226  0.55335  0.01449  Biso   1.000  H 
  H126     1.0000 0.15468  0.53888  0.03538  Biso   1.000  H 
  H127     1.0000 0.21194  0.60878  0.05790  Biso   1.000  H 
  H128     1.0000 0.27346  0.88813  0.94137  Biso   1.000  H 
  H129     1.0000 0.11120  0.64343  0.01632  Biso   1.000  H 
  H130     1.0000 0.11628  0.61478  0.07693  Biso   1.000  H 
  H131     1.0000 0.33063  0.94025  0.98692  Biso   1.000  H 
  H132     1.0000 0.35245  0.92409  0.92570  Biso   1.000  H 
  O57      1.0000 0.92810  0.86740  0.00000  Biso   1.000  O 
  C121     1.0000 0.88280  0.88280  0.00000  Biso   1.000  C 
  O58      1.0000 0.86740  0.92810  0.00000  Biso   1.000  O 
  C122     1.0000 0.84350  0.84350  0.00000  Biso   1.000  C 
  C123     1.0000 0.85530  0.79420  0.00000  Biso   1.000  C 
  C124     1.0000 0.79420  0.85530  0.00000  Biso   1.000  C 
  C125     1.0000 0.82050  0.75800  0.00000  Biso   1.000  C 
  H133     1.0000 0.88860  0.78510  0.00000  Biso   1.000  H 
  C126     1.0000 0.75800  0.82050  0.00000  Biso   1.000  C 
  H134     1.0000 0.78510  0.88860  0.00000  Biso   1.000  H 
  C127     1.0000 0.76930  0.76930  0.00000  Biso   1.000  C 
  C128     1.0000 0.73070  0.73070  0.00000  Biso   1.000  C 
  H135     1.0000 0.83050  0.72490  0.00000  Biso   1.000  H 
  C129     1.0000 0.74200  0.67950  0.00000  Biso   1.000  C 
  N13      1.0000 0.70575  0.84248  0.99602  Biso   1.000  N 
  C130     1.0000 0.67950  0.74200  0.00000  Biso   1.000  C 
  C131     1.0000 0.70580  0.64470  0.00000  Biso   1.000  C 
  N14      1.0000 0.79476  0.65800  0.00439  Biso   1.000  N 
  C132     1.0000 0.64470  0.70580  0.00000  Biso   1.000  C 
  H136     1.0000 0.66950  0.77510  0.00000  Biso   1.000  H 
  C133     1.0000 0.65650  0.65650  0.00000  Biso   1.000  C 
  C134     1.0000 0.61720  0.61720  0.00000  Biso   1.000  C 
  H137     1.0000 0.71490  0.61140  0.00000  Biso   1.000  H 
  H138     1.0000 0.61140  0.71490  0.00000  Biso   1.000  H 
  O59      1.0000 0.63260  0.57190  0.00000  Biso   1.000  O 
  O60      1.0000 0.57190  0.63260  0.00000  Biso   1.000  O 
  C135     1.0000 0.81332  0.63795  0.95665  Biso   1.000  C 
  C136     1.0000 0.69384  0.86870  0.04258  Biso   1.000  C 
  C137     1.0000 0.86658  0.61712  0.96023  Biso   1.000  C 
  C138     1.0000 0.65488  0.90945  0.03660  Biso   1.000  C 
  H139     1.0000 0.70429  0.86728  0.96593  Biso   1.000  H 
  H140     1.0000 0.79540  0.63089  0.03218  Biso   1.000  H 
  C139     1.0000 0.60537  0.89067  0.01586  Biso   1.000  C 
  H141     1.0000 0.68113  0.84075  0.07014  Biso   1.000  H 
  H142     1.0000 0.81417  0.66852  0.92903  Biso   1.000  H 
  H143     1.0000 0.60561  0.89333  0.97487  Biso   1.000  H 
  H144     1.0000 0.57525  0.91478  0.03035  Biso   1.000  H 
  H145     1.0000 0.59727  0.85178  0.02735  Biso   1.000  H 
  C140     1.0000 0.86837  0.56628  0.98496  Biso   1.000  C 
  H146     1.0000 0.85445  0.56912  0.02351  Biso   1.000  H 
  H147     1.0000 0.90774  0.55335  0.98551  Biso   1.000  H 
  H148     1.0000 0.84532  0.53888  0.96462  Biso   1.000  H 
  H149     1.0000 0.78806  0.60878  0.94210  Biso   1.000  H 
  H150     1.0000 0.72654  0.88813  0.05863  Biso   1.000  H 
  H151     1.0000 0.88880  0.64343  0.98369  Biso   1.000  H 
  H152     1.0000 0.88372  0.61478  0.92307  Biso   1.000  H 
  H153     1.0000 0.66937  0.94025  0.01308  Biso   1.000  H 
  H154     1.0000 0.64755  0.92409  0.07430  Biso   1.000  H 
  O61      1.0000 0.92810  0.13260  0.00000  Biso   1.000  O 
  C141     1.0000 0.88280  0.11720  0.00000  Biso   1.000  C 
  O62      1.0000 0.86740  0.07190  0.00000  Biso   1.000  O 
  C142     1.0000 0.84350  0.15650  0.00000  Biso   1.000  C 
  C143     1.0000 0.85530  0.20580  0.00000  Biso   1.000  C 
  C144     1.0000 0.79420  0.14470  0.00000  Biso   1.000  C 
  C145     1.0000 0.82050  0.24200  0.00000  Biso   1.000  C 
  H155     1.0000 0.88860  0.21490  0.00000  Biso   1.000  H 
  C146     1.0000 0.75800  0.17950  0.00000  Biso   1.000  C 
  H156     1.0000 0.78510  0.11140  0.00000  Biso   1.000  H 
  C147     1.0000 0.76930  0.23070  0.00000  Biso   1.000  C 
  C148     1.0000 0.73070  0.26930  0.00000  Biso   1.000  C 
  H157     1.0000 0.83050  0.27510  0.00000  Biso   1.000  H 
  C149     1.0000 0.74200  0.32050  0.00000  Biso   1.000  C 
  N15      1.0000 0.70575  0.15752  0.00398  Biso   1.000  N 
  C150     1.0000 0.67950  0.25800  0.00000  Biso   1.000  C 
  C151     1.0000 0.70580  0.35530  0.00000  Biso   1.000  C 
  N16      1.0000 0.79476  0.34200  0.99561  Biso   1.000  N 
  C152     1.0000 0.64470  0.29420  0.00000  Biso   1.000  C 
  H158     1.0000 0.66950  0.22490  0.00000  Biso   1.000  H 
  C153     1.0000 0.65650  0.34350  0.00000  Biso   1.000  C 
  C154     1.0000 0.61720  0.38280  0.00000  Biso   1.000  C 
  H159     1.0000 0.71490  0.38860  0.00000  Biso   1.000  H 
  H160     1.0000 0.61140  0.28510  0.00000  Biso   1.000  H 
  O63      1.0000 0.63260  0.42810  0.00000  Biso   1.000  O 
  O64      1.0000 0.57190  0.36740  0.00000  Biso   1.000  O 
  C155     1.0000 0.81332  0.36204  0.04335  Biso   1.000  C 
  C156     1.0000 0.69384  0.13130  0.95742  Biso   1.000  C 
  C157     1.0000 0.86658  0.38288  0.03977  Biso   1.000  C 
  C158     1.0000 0.65488  0.09055  0.96340  Biso   1.000  C 
  H161     1.0000 0.70429  0.13272  0.03407  Biso   1.000  H 
  H162     1.0000 0.79540  0.36911  0.96782  Biso   1.000  H 
  C159     1.0000 0.60537  0.10933  0.98414  Biso   1.000  C 
  H163     1.0000 0.68113  0.15925  0.92986  Biso   1.000  H 
  H164     1.0000 0.81417  0.33148  0.07097  Biso   1.000  H 
  H165     1.0000 0.60561  0.10667  0.02513  Biso   1.000  H 
  H166     1.0000 0.57525  0.08522  0.96965  Biso   1.000  H 
  H167     1.0000 0.59727  0.14822  0.97265  Biso   1.000  H 
  C160     1.0000 0.86837  0.43372  0.01504  Biso   1.000  C 
  H168     1.0000 0.85445  0.43088  0.97649  Biso   1.000  H 
  H169     1.0000 0.90774  0.44665  0.01449  Biso   1.000  H 
  H170     1.0000 0.84532  0.46112  0.03538  Biso   1.000  H 
  H171     1.0000 0.78806  0.39122  0.05790  Biso   1.000  H 
  H172     1.0000 0.72654  0.11187  0.94137  Biso   1.000  H 
  H173     1.0000 0.88880  0.35657  0.01632  Biso   1.000  H 
  H174     1.0000 0.88372  0.38522  0.07693  Biso   1.000  H 
  H175     1.0000 0.66937  0.05975  0.98692  Biso   1.000  H 
  H176     1.0000 0.64755  0.07591  0.92570  Biso   1.000  H 
  O65      1.0000 0.00000  0.07190  0.13260  Biso   1.000  O 
  C161     1.0000 0.00000  0.11720  0.11720  Biso   1.000  C 
  O66      1.0000 0.00000  0.13260  0.07190  Biso   1.000  O 
  C162     1.0000 0.00000  0.15650  0.15650  Biso   1.000  C 
  C163     1.0000 0.00000  0.14470  0.20580  Biso   1.000  C 
  C164     1.0000 0.00000  0.20580  0.14470  Biso   1.000  C 
  C165     1.0000 0.00000  0.17950  0.24200  Biso   1.000  C 
  H177     1.0000 0.00000  0.11140  0.21490  Biso   1.000  H 
  C166     1.0000 0.00000  0.24200  0.17950  Biso   1.000  C 
  H178     1.0000 0.00000  0.21490  0.11140  Biso   1.000  H 
  C167     1.0000 0.00000  0.23070  0.23070  Biso   1.000  C 
  C168     1.0000 0.00000  0.26930  0.26930  Biso   1.000  C 
  H179     1.0000 0.00000  0.16950  0.27510  Biso   1.000  H 
  C169     1.0000 0.00000  0.25800  0.32050  Biso   1.000  C 
  N17      1.0000 0.02637  0.29153  0.16234  Biso   1.000  N 
  C170     1.0000 0.00000  0.32050  0.25800  Biso   1.000  C 
  C171     1.0000 0.00000  0.29420  0.35530  Biso   1.000  C 
  N18      1.0000 0.01029  0.20595  0.34199  Biso   1.000  N 
  C172     1.0000 0.00000  0.35530  0.29420  Biso   1.000  C 
  H180     1.0000 0.00000  0.33050  0.22490  Biso   1.000  H 
  C173     1.0000 0.00000  0.34350  0.34350  Biso   1.000  C 
  C174     1.0000 0.00000  0.38280  0.38280  Biso   1.000  C 
  H181     1.0000 0.00000  0.28510  0.38860  Biso   1.000  H 
  H182     1.0000 0.00000  0.38860  0.28510  Biso   1.000  H 
  O67      1.0000 0.00000  0.36740  0.42810  Biso   1.000  O 
  O68      1.0000 0.00000  0.42810  0.36740  Biso   1.000  O 
  C175     1.0000 0.96812  0.18917  0.37332  Biso   1.000  C 
  C176     1.0000 0.07853  0.28554  0.15023  Biso   1.000  C 
  C177     1.0000 0.97980  0.13957  0.39965  Biso   1.000  C 
  C178     1.0000 0.11705  0.28863  0.19578  Biso   1.000  C 
  H183     1.0000 0.01081  0.29958  0.12736  Biso   1.000  H 
  H184     1.0000 0.04384  0.20509  0.36161  Biso   1.000  H 
  C179     1.0000 0.16244  0.26481  0.17502  Biso   1.000  C 
  H185     1.0000 0.07882  0.24849  0.12975  Biso   1.000  H 
  H186     1.0000 0.93477  0.18272  0.34964  Biso   1.000  H 
  H187     1.0000 0.15178  0.22692  0.16459  Biso   1.000  H 
  H188     1.0000 0.19363  0.26148  0.20127  Biso   1.000  H 
  H189     1.0000 0.17379  0.28420  0.13977  Biso   1.000  H 
  C180     1.0000 0.01804  0.14390  0.44066  Biso   1.000  C 
  H190     1.0000 0.05576  0.14751  0.42441  Biso   1.000  H 
  H191     1.0000 0.01719  0.11158  0.46513  Biso   1.000  H 
  H192     1.0000 0.00988  0.17766  0.46165  Biso   1.000  H 
  H193     1.0000 0.95818  0.21739  0.40127  Biso   1.000  H 
  H194     1.0000 0.09012  0.31467  0.12281  Biso   1.000  H 
  H195     1.0000 0.99344  0.11297  0.37150  Biso   1.000  H 
  H196     1.0000 0.94518  0.12408  0.41647  Biso   1.000  H 
  H197     1.0000 0.10308  0.27054  0.22903  Biso   1.000  H 
  H198     1.0000 0.12234  0.32870  0.20410  Biso   1.000  H 
  O69      1.0000 0.00000  0.07190  0.86740  Biso   1.000  O 
  C181     1.0000 0.00000  0.11720  0.88280  Biso   1.000  C 
  O70      1.0000 0.00000  0.13260  0.92810  Biso   1.000  O 
  C182     1.0000 0.00000  0.15650  0.84350  Biso   1.000  C 
  C183     1.0000 0.00000  0.14470  0.79420  Biso   1.000  C 
  C184     1.0000 0.00000  0.20580  0.85530  Biso   1.000  C 
  C185     1.0000 0.00000  0.17950  0.75800  Biso   1.000  C 
  H199     1.0000 0.00000  0.11140  0.78510  Biso   1.000  H 
  C186     1.0000 0.00000  0.24200  0.82050  Biso   1.000  C 
  H200     1.0000 0.00000  0.21490  0.88860  Biso   1.000  H 
  C187     1.0000 0.00000  0.23070  0.76930  Biso   1.000  C 
  C188     1.0000 0.00000  0.26930  0.73070  Biso   1.000  C 
  H201     1.0000 0.00000  0.16950  0.72490  Biso   1.000  H 
  C189     1.0000 0.00000  0.25800  0.67950  Biso   1.000  C 
  N19      1.0000 0.97363  0.29153  0.83766  Biso   1.000  N 
  C190     1.0000 0.00000  0.32050  0.74200  Biso   1.000  C 
  C191     1.0000 0.00000  0.29420  0.64470  Biso   1.000  C 
  N20      1.0000 0.98971  0.20595  0.65801  Biso   1.000  N 
  C192     1.0000 0.00000  0.35530  0.70580  Biso   1.000  C 
  H202     1.0000 0.00000  0.33050  0.77510  Biso   1.000  H 
  C193     1.0000 0.00000  0.34350  0.65650  Biso   1.000  C 
  C194     1.0000 0.00000  0.38280  0.61720  Biso   1.000  C 
  H203     1.0000 0.00000  0.28510  0.61140  Biso   1.000  H 
  H204     1.0000 0.00000  0.38860  0.71490  Biso   1.000  H 
  O71      1.0000 0.00000  0.36740  0.57190  Biso   1.000  O 
  O72      1.0000 0.00000  0.42810  0.63260  Biso   1.000  O 
  C195     1.0000 0.03188  0.18917  0.62668  Biso   1.000  C 
  C196     1.0000 0.92147  0.28554  0.84977  Biso   1.000  C 
  C197     1.0000 0.02020  0.13957  0.60035  Biso   1.000  C 
  C198     1.0000 0.88295  0.28863  0.80422  Biso   1.000  C 
  H205     1.0000 0.98919  0.29958  0.87264  Biso   1.000  H 
  H206     1.0000 0.95616  0.20509  0.63838  Biso   1.000  H 
  C199     1.0000 0.83756  0.26481  0.82498  Biso   1.000  C 
  H207     1.0000 0.92118  0.24849  0.87025  Biso   1.000  H 
  H208     1.0000 0.06523  0.18272  0.65036  Biso   1.000  H 
  H209     1.0000 0.84822  0.22692  0.83541  Biso   1.000  H 
  H210     1.0000 0.80637  0.26148  0.79874  Biso   1.000  H 
  H211     1.0000 0.82621  0.28420  0.86023  Biso   1.000  H 
  C200     1.0000 0.98196  0.14390  0.55934  Biso   1.000  C 
  H212     1.0000 0.94424  0.14751  0.57559  Biso   1.000  H 
  H213     1.0000 0.98281  0.11158  0.53487  Biso   1.000  H 
  H214     1.0000 0.99012  0.17766  0.53835  Biso   1.000  H 
  H215     1.0000 0.04183  0.21739  0.59873  Biso   1.000  H 
  H216     1.0000 0.90988  0.31467  0.87719  Biso   1.000  H 
  H217     1.0000 0.00656  0.11297  0.62851  Biso   1.000  H 
  H218     1.0000 0.05482  0.12408  0.58353  Biso   1.000  H 
  H219     1.0000 0.89692  0.27054  0.77097  Biso   1.000  H 
  H220     1.0000 0.87766  0.32870  0.79590  Biso   1.000  H 
  O73      1.0000 0.00000  0.92810  0.86740  Biso   1.000  O 
  C201     1.0000 0.00000  0.88280  0.88280  Biso   1.000  C 
  O74      1.0000 0.00000  0.86740  0.92810  Biso   1.000  O 
  C202     1.0000 0.00000  0.84350  0.84350  Biso   1.000  C 
  C203     1.0000 0.00000  0.85530  0.79420  Biso   1.000  C 
  C204     1.0000 0.00000  0.79420  0.85530  Biso   1.000  C 
  C205     1.0000 0.00000  0.82050  0.75800  Biso   1.000  C 
  H221     1.0000 0.00000  0.88860  0.78510  Biso   1.000  H 
  C206     1.0000 0.00000  0.75800  0.82050  Biso   1.000  C 
  H222     1.0000 0.00000  0.78510  0.88860  Biso   1.000  H 
  C207     1.0000 0.00000  0.76930  0.76930  Biso   1.000  C 
  C208     1.0000 0.00000  0.73070  0.73070  Biso   1.000  C 
  H223     1.0000 0.00000  0.83050  0.72490  Biso   1.000  H 
  C209     1.0000 0.00000  0.74200  0.67950  Biso   1.000  C 
  N21      1.0000 0.02637  0.70847  0.83766  Biso   1.000  N 
  C210     1.0000 0.00000  0.67950  0.74200  Biso   1.000  C 
  C211     1.0000 0.00000  0.70580  0.64470  Biso   1.000  C 
  N22      1.0000 0.01029  0.79405  0.65801  Biso   1.000  N 
  C212     1.0000 0.00000  0.64470  0.70580  Biso   1.000  C 
  H224     1.0000 0.00000  0.66950  0.77510  Biso   1.000  H 
  C213     1.0000 0.00000  0.65650  0.65650  Biso   1.000  C 
  C214     1.0000 0.00000  0.61720  0.61720  Biso   1.000  C 
  H225     1.0000 0.00000  0.71490  0.61140  Biso   1.000  H 
  H226     1.0000 0.00000  0.61140  0.71490  Biso   1.000  H 
  O75      1.0000 0.00000  0.63260  0.57190  Biso   1.000  O 
  O76      1.0000 0.00000  0.57190  0.63260  Biso   1.000  O 
  C215     1.0000 0.96812  0.81083  0.62668  Biso   1.000  C 
  C216     1.0000 0.07853  0.71446  0.84977  Biso   1.000  C 
  C217     1.0000 0.97980  0.86043  0.60035  Biso   1.000  C 
  C218     1.0000 0.11705  0.71137  0.80422  Biso   1.000  C 
  H227     1.0000 0.01081  0.70042  0.87264  Biso   1.000  H 
  H228     1.0000 0.04384  0.79491  0.63838  Biso   1.000  H 
  C219     1.0000 0.16244  0.73519  0.82498  Biso   1.000  C 
  H229     1.0000 0.07882  0.75151  0.87025  Biso   1.000  H 
  H230     1.0000 0.93477  0.81727  0.65036  Biso   1.000  H 
  H231     1.0000 0.15178  0.77308  0.83541  Biso   1.000  H 
  H232     1.0000 0.19363  0.73852  0.79874  Biso   1.000  H 
  H233     1.0000 0.17379  0.71580  0.86023  Biso   1.000  H 
  C220     1.0000 0.01804  0.85610  0.55934  Biso   1.000  C 
  H234     1.0000 0.05576  0.85249  0.57559  Biso   1.000  H 
  H235     1.0000 0.01719  0.88842  0.53487  Biso   1.000  H 
  H236     1.0000 0.00988  0.82234  0.53835  Biso   1.000  H 
  H237     1.0000 0.95818  0.78261  0.59873  Biso   1.000  H 
  H238     1.0000 0.09012  0.68533  0.87719  Biso   1.000  H 
  H239     1.0000 0.99344  0.88703  0.62851  Biso   1.000  H 
  H240     1.0000 0.94518  0.87592  0.58353  Biso   1.000  H 
  H241     1.0000 0.10308  0.72946  0.77097  Biso   1.000  H 
  H242     1.0000 0.12234  0.67130  0.79590  Biso   1.000  H 
  O77      1.0000 0.00000  0.92810  0.13260  Biso   1.000  O 
  C221     1.0000 0.00000  0.88280  0.11720  Biso   1.000  C 
  O78      1.0000 0.00000  0.86740  0.07190  Biso   1.000  O 
  C222     1.0000 0.00000  0.84350  0.15650  Biso   1.000  C 
  C223     1.0000 0.00000  0.85530  0.20580  Biso   1.000  C 
  C224     1.0000 0.00000  0.79420  0.14470  Biso   1.000  C 
  C225     1.0000 0.00000  0.82050  0.24200  Biso   1.000  C 
  H243     1.0000 0.00000  0.88860  0.21490  Biso   1.000  H 
  C226     1.0000 0.00000  0.75800  0.17950  Biso   1.000  C 
  H244     1.0000 0.00000  0.78510  0.11140  Biso   1.000  H 
  C227     1.0000 0.00000  0.76930  0.23070  Biso   1.000  C 
  C228     1.0000 0.00000  0.73070  0.26930  Biso   1.000  C 
  H245     1.0000 0.00000  0.83050  0.27510  Biso   1.000  H 
  C229     1.0000 0.00000  0.74200  0.32050  Biso   1.000  C 
  N23      1.0000 0.97363  0.70847  0.16234  Biso   1.000  N 
  C230     1.0000 0.00000  0.67950  0.25800  Biso   1.000  C 
  C231     1.0000 0.00000  0.70580  0.35530  Biso   1.000  C 
  N24      1.0000 0.98971  0.79405  0.34199  Biso   1.000  N 
  C232     1.0000 0.00000  0.64470  0.29420  Biso   1.000  C 
  H246     1.0000 0.00000  0.66950  0.22490  Biso   1.000  H 
  C233     1.0000 0.00000  0.65650  0.34350  Biso   1.000  C 
  C234     1.0000 0.00000  0.61720  0.38280  Biso   1.000  C 
  H247     1.0000 0.00000  0.71490  0.38860  Biso   1.000  H 
  H248     1.0000 0.00000  0.61140  0.28510  Biso   1.000  H 
  O79      1.0000 0.00000  0.63260  0.42810  Biso   1.000  O 
  O80      1.0000 0.00000  0.57190  0.36740  Biso   1.000  O 
  C235     1.0000 0.03188  0.81083  0.37332  Biso   1.000  C 
  C236     1.0000 0.92147  0.71446  0.15023  Biso   1.000  C 
  C237     1.0000 0.02020  0.86043  0.39965  Biso   1.000  C 
  C238     1.0000 0.88295  0.71137  0.19578  Biso   1.000  C 
  H249     1.0000 0.98919  0.70042  0.12736  Biso   1.000  H 
  H250     1.0000 0.95616  0.79491  0.36161  Biso   1.000  H 
  C239     1.0000 0.83756  0.73519  0.17502  Biso   1.000  C 
  H251     1.0000 0.92118  0.75151  0.12975  Biso   1.000  H 
  H252     1.0000 0.06523  0.81727  0.34964  Biso   1.000  H 
  H253     1.0000 0.84822  0.77308  0.16459  Biso   1.000  H 
  H254     1.0000 0.80637  0.73852  0.20127  Biso   1.000  H 
  H255     1.0000 0.82621  0.71580  0.13977  Biso   1.000  H 
  C240     1.0000 0.98196  0.85610  0.44066  Biso   1.000  C 
  H256     1.0000 0.94424  0.85249  0.42441  Biso   1.000  H 
  H257     1.0000 0.98281  0.88842  0.46513  Biso   1.000  H 
  H258     1.0000 0.99012  0.82234  0.46165  Biso   1.000  H 
  H259     1.0000 0.04183  0.78261  0.40127  Biso   1.000  H 
  H260     1.0000 0.90988  0.68533  0.12281  Biso   1.000  H 
  H261     1.0000 0.00656  0.88703  0.37150  Biso   1.000  H 
  H262     1.0000 0.05482  0.87592  0.41647  Biso   1.000  H 
  H263     1.0000 0.89692  0.72946  0.22903  Biso   1.000  H 
  H264     1.0000 0.87766  0.67130  0.20410  Biso   1.000  H 
  O81      1.0000 0.13260  0.50000  0.57190  Biso   1.000  O 
  C241     1.0000 0.11720  0.50000  0.61720  Biso   1.000  C 
  O82      1.0000 0.07190  0.50000  0.63260  Biso   1.000  O 
  C242     1.0000 0.15650  0.50000  0.65650  Biso   1.000  C 
  C243     1.0000 0.20580  0.50000  0.64470  Biso   1.000  C 
  C244     1.0000 0.14470  0.50000  0.70580  Biso   1.000  C 
  C245     1.0000 0.24200  0.50000  0.67950  Biso   1.000  C 
  H265     1.0000 0.21490  0.50000  0.61140  Biso   1.000  H 
  C246     1.0000 0.17950  0.50000  0.74200  Biso   1.000  C 
  H266     1.0000 0.11140  0.50000  0.71490  Biso   1.000  H 
  C247     1.0000 0.23070  0.50000  0.73070  Biso   1.000  C 
  C248     1.0000 0.26930  0.50000  0.76930  Biso   1.000  C 
  H267     1.0000 0.27510  0.50000  0.66950  Biso   1.000  H 
  C249     1.0000 0.32050  0.50000  0.75800  Biso   1.000  C 
  N25      1.0000 0.15785  0.49686  0.79608  Biso   1.000  N 
  C250     1.0000 0.25800  0.50000  0.82050  Biso   1.000  C 
  C251     1.0000 0.35530  0.50000  0.79420  Biso   1.000  C 
  N26      1.0000 0.34096  0.49071  0.70529  Biso   1.000  N 
  C252     1.0000 0.29420  0.50000  0.85530  Biso   1.000  C 
  H268     1.0000 0.22490  0.50000  0.83050  Biso   1.000  H 
  C253     1.0000 0.34350  0.50000  0.84350  Biso   1.000  C 
  C254     1.0000 0.38280  0.50000  0.88280  Biso   1.000  C 
  H269     1.0000 0.38860  0.50000  0.78510  Biso   1.000  H 
  H270     1.0000 0.28510  0.50000  0.88860  Biso   1.000  H 
  O83      1.0000 0.42810  0.50000  0.86740  Biso   1.000  O 
  O84      1.0000 0.36740  0.50000  0.92810  Biso   1.000  O 
  C255     1.0000 0.36015  0.43976  0.69906  Biso   1.000  C 
  C256     1.0000 0.12427  0.53955  0.80032  Biso   1.000  C 
  C257     1.0000 0.35775  0.41933  0.64540  Biso   1.000  C 
  C258     1.0000 0.11392  0.55146  0.85578  Biso   1.000  C 
  H271     1.0000 0.13399  0.46628  0.79797  Biso   1.000  H 
  H272     1.0000 0.36812  0.51702  0.69651  Biso   1.000  H 
  C259     1.0000 0.07646  0.52174  0.88437  Biso   1.000  C 
  H273     1.0000 0.14267  0.57377  0.77826  Biso   1.000  H 
  H274     1.0000 0.33650  0.41396  0.72070  Biso   1.000  H 
  H275     1.0000 0.05415  0.50185  0.85969  Biso   1.000  H 
  H276     1.0000 0.05540  0.54915  0.90774  Biso   1.000  H 
  H277     1.0000 0.09314  0.49236  0.91042  Biso   1.000  H 
  C260     1.0000 0.40072  0.43636  0.61278  Biso   1.000  C 
  H278     1.0000 0.40401  0.47674  0.61636  Biso   1.000  H 
  H279     1.0000 0.39288  0.42552  0.57349  Biso   1.000  H 
  H280     1.0000 0.43654  0.41874  0.62430  Biso   1.000  H 
  H281     1.0000 0.39836  0.43727  0.71437  Biso   1.000  H 
  H282     1.0000 0.08630  0.53238  0.78202  Biso   1.000  H 
  H283     1.0000 0.32173  0.43186  0.62829  Biso   1.000  H 
  H284     1.0000 0.35912  0.37836  0.64614  Biso   1.000  H 
  H285     1.0000 0.09891  0.59165  0.85610  Biso   1.000  H 
  H286     1.0000 0.15090  0.55260  0.87547  Biso   1.000  H 
  O85      1.0000 0.86740  0.50000  0.57190  Biso   1.000  O 
  C261     1.0000 0.88280  0.50000  0.61720  Biso   1.000  C 
  O86      1.0000 0.92810  0.50000  0.63260  Biso   1.000  O 
  C262     1.0000 0.84350  0.50000  0.65650  Biso   1.000  C 
  C263     1.0000 0.79420  0.50000  0.64470  Biso   1.000  C 
  C264     1.0000 0.85530  0.50000  0.70580  Biso   1.000  C 
  C265     1.0000 0.75800  0.50000  0.67950  Biso   1.000  C 
  H287     1.0000 0.78510  0.50000  0.61140  Biso   1.000  H 
  C266     1.0000 0.82050  0.50000  0.74200  Biso   1.000  C 
  H288     1.0000 0.88860  0.50000  0.71490  Biso   1.000  H 
  C267     1.0000 0.76930  0.50000  0.73070  Biso   1.000  C 
  C268     1.0000 0.73070  0.50000  0.76930  Biso   1.000  C 
  H289     1.0000 0.72490  0.50000  0.66950  Biso   1.000  H 
  C269     1.0000 0.67950  0.50000  0.75800  Biso   1.000  C 
  N27      1.0000 0.84215  0.50314  0.79608  Biso   1.000  N 
  C270     1.0000 0.74200  0.50000  0.82050  Biso   1.000  C 
  C271     1.0000 0.64470  0.50000  0.79420  Biso   1.000  C 
  N28      1.0000 0.65905  0.50929  0.70529  Biso   1.000  N 
  C272     1.0000 0.70580  0.50000  0.85530  Biso   1.000  C 
  H290     1.0000 0.77510  0.50000  0.83050  Biso   1.000  H 
  C273     1.0000 0.65650  0.50000  0.84350  Biso   1.000  C 
  C274     1.0000 0.61720  0.50000  0.88280  Biso   1.000  C 
  H291     1.0000 0.61140  0.50000  0.78510  Biso   1.000  H 
  H292     1.0000 0.71490  0.50000  0.88860  Biso   1.000  H 
  O87      1.0000 0.57190  0.50000  0.86740  Biso   1.000  O 
  O88      1.0000 0.63260  0.50000  0.92810  Biso   1.000  O 
  C275     1.0000 0.63985  0.56024  0.69906  Biso   1.000  C 
  C276     1.0000 0.87573  0.46045  0.80032  Biso   1.000  C 
  C277     1.0000 0.64225  0.58067  0.64540  Biso   1.000  C 
  C278     1.0000 0.88608  0.44854  0.85578  Biso   1.000  C 
  H293     1.0000 0.86601  0.53372  0.79797  Biso   1.000  H 
  H294     1.0000 0.63188  0.48298  0.69651  Biso   1.000  H 
  C279     1.0000 0.92354  0.47826  0.88437  Biso   1.000  C 
  H295     1.0000 0.85732  0.42623  0.77826  Biso   1.000  H 
  H296     1.0000 0.66350  0.58604  0.72070  Biso   1.000  H 
  H297     1.0000 0.94585  0.49815  0.85969  Biso   1.000  H 
  H298     1.0000 0.94461  0.45085  0.90774  Biso   1.000  H 
  H299     1.0000 0.90686  0.50764  0.91042  Biso   1.000  H 
  C280     1.0000 0.59928  0.56364  0.61278  Biso   1.000  C 
  H300     1.0000 0.59599  0.52326  0.61636  Biso   1.000  H 
  H301     1.0000 0.60712  0.57448  0.57349  Biso   1.000  H 
  H302     1.0000 0.56346  0.58126  0.62430  Biso   1.000  H 
  H303     1.0000 0.60164  0.56273  0.71437  Biso   1.000  H 
  H304     1.0000 0.91370  0.46762  0.78202  Biso   1.000  H 
  H305     1.0000 0.67827  0.56814  0.62829  Biso   1.000  H 
  H306     1.0000 0.64088  0.62164  0.64614  Biso   1.000  H 
  H307     1.0000 0.90109  0.40835  0.85610  Biso   1.000  H 
  H308     1.0000 0.84910  0.44740  0.87547  Biso   1.000  H 
  O89      1.0000 0.86740  0.50000  0.42810  Biso   1.000  O 
  C281     1.0000 0.88280  0.50000  0.38280  Biso   1.000  C 
  O90      1.0000 0.92810  0.50000  0.36740  Biso   1.000  O 
  C282     1.0000 0.84350  0.50000  0.34350  Biso   1.000  C 
  C283     1.0000 0.79420  0.50000  0.35530  Biso   1.000  C 
  C284     1.0000 0.85530  0.50000  0.29420  Biso   1.000  C 
  C285     1.0000 0.75800  0.50000  0.32050  Biso   1.000  C 
  H309     1.0000 0.78510  0.50000  0.38860  Biso   1.000  H 
  C286     1.0000 0.82050  0.50000  0.25800  Biso   1.000  C 
  H310     1.0000 0.88860  0.50000  0.28510  Biso   1.000  H 
  C287     1.0000 0.76930  0.50000  0.26930  Biso   1.000  C 
  C288     1.0000 0.73070  0.50000  0.23070  Biso   1.000  C 
  H311     1.0000 0.72490  0.50000  0.33050  Biso   1.000  H 
  C289     1.0000 0.67950  0.50000  0.24200  Biso   1.000  C 
  N29      1.0000 0.84215  0.49686  0.20392  Biso   1.000  N 
  C290     1.0000 0.74200  0.50000  0.17950  Biso   1.000  C 
  C291     1.0000 0.64470  0.50000  0.20580  Biso   1.000  C 
  N30      1.0000 0.65905  0.49071  0.29471  Biso   1.000  N 
  C292     1.0000 0.70580  0.50000  0.14470  Biso   1.000  C 
  H312     1.0000 0.77510  0.50000  0.16950  Biso   1.000  H 
  C293     1.0000 0.65650  0.50000  0.15650  Biso   1.000  C 
  C294     1.0000 0.61720  0.50000  0.11720  Biso   1.000  C 
  H313     1.0000 0.61140  0.50000  0.21490  Biso   1.000  H 
  H314     1.0000 0.71490  0.50000  0.11140  Biso   1.000  H 
  O91      1.0000 0.57190  0.50000  0.13260  Biso   1.000  O 
  O92      1.0000 0.63260  0.50000  0.07190  Biso   1.000  O 
  C295     1.0000 0.63985  0.43976  0.30094  Biso   1.000  C 
  C296     1.0000 0.87573  0.53955  0.19968  Biso   1.000  C 
  C297     1.0000 0.64225  0.41933  0.35460  Biso   1.000  C 
  C298     1.0000 0.88608  0.55146  0.14422  Biso   1.000  C 
  H315     1.0000 0.86601  0.46628  0.20203  Biso   1.000  H 
  H316     1.0000 0.63188  0.51702  0.30349  Biso   1.000  H 
  C299     1.0000 0.92354  0.52174  0.11562  Biso   1.000  C 
  H317     1.0000 0.85732  0.57377  0.22174  Biso   1.000  H 
  H318     1.0000 0.66350  0.41396  0.27930  Biso   1.000  H 
  H319     1.0000 0.94585  0.50185  0.14031  Biso   1.000  H 
  H320     1.0000 0.94461  0.54915  0.09226  Biso   1.000  H 
  H321     1.0000 0.90686  0.49236  0.08958  Biso   1.000  H 
  C300     1.0000 0.59928  0.43636  0.38722  Biso   1.000  C 
  H322     1.0000 0.59599  0.47674  0.38364  Biso   1.000  H 
  H323     1.0000 0.60712  0.42552  0.42651  Biso   1.000  H 
  H324     1.0000 0.56346  0.41874  0.37570  Biso   1.000  H 
  H325     1.0000 0.60164  0.43727  0.28563  Biso   1.000  H 
  H326     1.0000 0.91370  0.53238  0.21799  Biso   1.000  H 
  H327     1.0000 0.67827  0.43186  0.37170  Biso   1.000  H 
  H328     1.0000 0.64088  0.37836  0.35386  Biso   1.000  H 
  H329     1.0000 0.90109  0.59165  0.14390  Biso   1.000  H 
  H330     1.0000 0.84910  0.55260  0.12453  Biso   1.000  H 
  O93      1.0000 0.13260  0.50000  0.42810  Biso   1.000  O 
  C301     1.0000 0.11720  0.50000  0.38280  Biso   1.000  C 
  O94      1.0000 0.07190  0.50000  0.36740  Biso   1.000  O 
  C302     1.0000 0.15650  0.50000  0.34350  Biso   1.000  C 
  C303     1.0000 0.20580  0.50000  0.35530  Biso   1.000  C 
  C304     1.0000 0.14470  0.50000  0.29420  Biso   1.000  C 
  C305     1.0000 0.24200  0.50000  0.32050  Biso   1.000  C 
  H331     1.0000 0.21490  0.50000  0.38860  Biso   1.000  H 
  C306     1.0000 0.17950  0.50000  0.25800  Biso   1.000  C 
  H332     1.0000 0.11140  0.50000  0.28510  Biso   1.000  H 
  C307     1.0000 0.23070  0.50000  0.26930  Biso   1.000  C 
  C308     1.0000 0.26930  0.50000  0.23070  Biso   1.000  C 
  H333     1.0000 0.27510  0.50000  0.33050  Biso   1.000  H 
  C309     1.0000 0.32050  0.50000  0.24200  Biso   1.000  C 
  N31      1.0000 0.15785  0.50314  0.20392  Biso   1.000  N 
  C310     1.0000 0.25800  0.50000  0.17950  Biso   1.000  C 
  C311     1.0000 0.35530  0.50000  0.20580  Biso   1.000  C 
  N32      1.0000 0.34096  0.50929  0.29471  Biso   1.000  N 
  C312     1.0000 0.29420  0.50000  0.14470  Biso   1.000  C 
  H334     1.0000 0.22490  0.50000  0.16950  Biso   1.000  H 
  C313     1.0000 0.34350  0.50000  0.15650  Biso   1.000  C 
  C314     1.0000 0.38280  0.50000  0.11720  Biso   1.000  C 
  H335     1.0000 0.38860  0.50000  0.21490  Biso   1.000  H 
  H336     1.0000 0.28510  0.50000  0.11140  Biso   1.000  H 
  O95      1.0000 0.42810  0.50000  0.13260  Biso   1.000  O 
  O96      1.0000 0.36740  0.50000  0.07190  Biso   1.000  O 
  C315     1.0000 0.36015  0.56024  0.30094  Biso   1.000  C 
  C316     1.0000 0.12427  0.46045  0.19968  Biso   1.000  C 
  C317     1.0000 0.35775  0.58067  0.35460  Biso   1.000  C 
  C318     1.0000 0.11392  0.44854  0.14422  Biso   1.000  C 
  H337     1.0000 0.13399  0.53372  0.20203  Biso   1.000  H 
  H338     1.0000 0.36812  0.48298  0.30349  Biso   1.000  H 
  C319     1.0000 0.07646  0.47826  0.11562  Biso   1.000  C 
  H339     1.0000 0.14267  0.42623  0.22174  Biso   1.000  H 
  H340     1.0000 0.33650  0.58604  0.27930  Biso   1.000  H 
  H341     1.0000 0.05415  0.49815  0.14031  Biso   1.000  H 
  H342     1.0000 0.05540  0.45085  0.09226  Biso   1.000  H 
  H343     1.0000 0.09314  0.50764  0.08958  Biso   1.000  H 
  C320     1.0000 0.40072  0.56364  0.38722  Biso   1.000  C 
  H344     1.0000 0.40401  0.52326  0.38364  Biso   1.000  H 
  H345     1.0000 0.39288  0.57448  0.42651  Biso   1.000  H 
  H346     1.0000 0.43654  0.58126  0.37570  Biso   1.000  H 
  H347     1.0000 0.39836  0.56273  0.28563  Biso   1.000  H 
  H348     1.0000 0.08630  0.46762  0.21799  Biso   1.000  H 
  H349     1.0000 0.32173  0.56814  0.37170  Biso   1.000  H 
  H350     1.0000 0.35912  0.62164  0.35386  Biso   1.000  H 
  H351     1.0000 0.09891  0.40835  0.14390  Biso   1.000  H 
  H352     1.0000 0.15090  0.44740  0.12453  Biso   1.000  H 
  O97      1.0000 0.07190  0.63260  0.50000  Biso   1.000  O 
  C321     1.0000 0.11720  0.61720  0.50000  Biso   1.000  C 
  O98      1.0000 0.13260  0.57190  0.50000  Biso   1.000  O 
  C322     1.0000 0.15650  0.65650  0.50000  Biso   1.000  C 
  C323     1.0000 0.14470  0.70580  0.50000  Biso   1.000  C 
  C324     1.0000 0.20580  0.64470  0.50000  Biso   1.000  C 
  C325     1.0000 0.17950  0.74200  0.50000  Biso   1.000  C 
  H353     1.0000 0.11140  0.71490  0.50000  Biso   1.000  H 
  C326     1.0000 0.24200  0.67950  0.50000  Biso   1.000  C 
  H354     1.0000 0.21490  0.61140  0.50000  Biso   1.000  H 
  C327     1.0000 0.23070  0.73070  0.50000  Biso   1.000  C 
  C328     1.0000 0.26930  0.76930  0.50000  Biso   1.000  C 
  H355     1.0000 0.16950  0.77510  0.50000  Biso   1.000  H 
  C329     1.0000 0.25800  0.82050  0.50000  Biso   1.000  C 
  N33      1.0000 0.29254  0.65963  0.51978  Biso   1.000  N 
  C330     1.0000 0.32050  0.75800  0.50000  Biso   1.000  C 
  C331     1.0000 0.29420  0.85530  0.50000  Biso   1.000  C 
  N34      1.0000 0.20920  0.83946  0.47706  Biso   1.000  N 
  C332     1.0000 0.35530  0.79420  0.50000  Biso   1.000  C 
  H356     1.0000 0.33050  0.72490  0.50000  Biso   1.000  H 
  C333     1.0000 0.34350  0.84350  0.50000  Biso   1.000  C 
  C334     1.0000 0.38280  0.88280  0.50000  Biso   1.000  C 
  H357     1.0000 0.28510  0.88860  0.50000  Biso   1.000  H 
  H358     1.0000 0.38860  0.78510  0.50000  Biso   1.000  H 
  O99      1.0000 0.36740  0.92810  0.50000  Biso   1.000  O 
  O100     1.0000 0.42810  0.86740  0.50000  Biso   1.000  O 
  C335     1.0000 0.22045  0.85422  0.42538  Biso   1.000  C 
  C336     1.0000 0.29538  0.64507  0.57261  Biso   1.000  C 
  C337     1.0000 0.17405  0.85419  0.39226  Biso   1.000  C 
  C338     1.0000 0.27026  0.68067  0.60553  Biso   1.000  C 
  H359     1.0000 0.30158  0.62730  0.49979  Biso   1.000  H 
  H360     1.0000 0.19803  0.87112  0.49686  Biso   1.000  H 
  C339     1.0000 0.26860  0.66024  0.65934  Biso   1.000  C 
  H361     1.0000 0.27823  0.60802  0.57624  Biso   1.000  H 
  H362     1.0000 0.24815  0.82789  0.40881  Biso   1.000  H 
  H363     1.0000 0.27920  0.69128  0.68672  Biso   1.000  H 
  H364     1.0000 0.29540  0.62832  0.66427  Biso   1.000  H 
  H365     1.0000 0.23091  0.64729  0.66249  Biso   1.000  H 
  C340     1.0000 0.18685  0.85142  0.33685  Biso   1.000  C 
  H366     1.0000 0.15172  0.84393  0.31665  Biso   1.000  H 
  H367     1.0000 0.21400  0.82145  0.32839  Biso   1.000  H 
  H368     1.0000 0.20237  0.88812  0.32530  Biso   1.000  H 
  H369     1.0000 0.23697  0.89220  0.42506  Biso   1.000  H 
  H370     1.0000 0.33490  0.63752  0.57976  Biso   1.000  H 
  H371     1.0000 0.15267  0.88841  0.40024  Biso   1.000  H 
  H372     1.0000 0.15012  0.82198  0.40109  Biso   1.000  H 
  H373     1.0000 0.23266  0.69366  0.59577  Biso   1.000  H 
  H374     1.0000 0.29248  0.71155  0.61110  Biso   1.000  H 
  O101     1.0000 0.07190  0.36740  0.50000  Biso   1.000  O 
  C341     1.0000 0.11720  0.38280  0.50000  Biso   1.000  C 
  O102     1.0000 0.13260  0.42810  0.50000  Biso   1.000  O 
  C342     1.0000 0.15650  0.34350  0.50000  Biso   1.000  C 
  C343     1.0000 0.14470  0.29420  0.50000  Biso   1.000  C 
  C344     1.0000 0.20580  0.35530  0.50000  Biso   1.000  C 
  C345     1.0000 0.17950  0.25800  0.50000  Biso   1.000  C 
  H375     1.0000 0.11140  0.28510  0.50000  Biso   1.000  H 
  C346     1.0000 0.24200  0.32050  0.50000  Biso   1.000  C 
  H376     1.0000 0.21490  0.38860  0.50000  Biso   1.000  H 
  C347     1.0000 0.23070  0.26930  0.50000  Biso   1.000  C 
  C348     1.0000 0.26930  0.23070  0.50000  Biso   1.000  C 
  H377     1.0000 0.16950  0.22490  0.50000  Biso   1.000  H 
  C349     1.0000 0.25800  0.17950  0.50000  Biso   1.000  C 
  N35      1.0000 0.29254  0.34037  0.48022  Biso   1.000  N 
  C350     1.0000 0.32050  0.24200  0.50000  Biso   1.000  C 
  C351     1.0000 0.29420  0.14470  0.50000  Biso   1.000  C 
  N36      1.0000 0.20920  0.16054  0.52294  Biso   1.000  N 
  C352     1.0000 0.35530  0.20580  0.50000  Biso   1.000  C 
  H378     1.0000 0.33050  0.27510  0.50000  Biso   1.000  H 
  C353     1.0000 0.34350  0.15650  0.50000  Biso   1.000  C 
  C354     1.0000 0.38280  0.11720  0.50000  Biso   1.000  C 
  H379     1.0000 0.28510  0.11140  0.50000  Biso   1.000  H 
  H380     1.0000 0.38860  0.21490  0.50000  Biso   1.000  H 
  O103     1.0000 0.36740  0.07190  0.50000  Biso   1.000  O 
  O104     1.0000 0.42810  0.13260  0.50000  Biso   1.000  O 
  C355     1.0000 0.22045  0.14579  0.57462  Biso   1.000  C 
  C356     1.0000 0.29538  0.35493  0.42739  Biso   1.000  C 
  C357     1.0000 0.17405  0.14581  0.60774  Biso   1.000  C 
  C358     1.0000 0.27026  0.31933  0.39447  Biso   1.000  C 
  H381     1.0000 0.30158  0.37270  0.50021  Biso   1.000  H 
  H382     1.0000 0.19803  0.12888  0.50314  Biso   1.000  H 
  C359     1.0000 0.26860  0.33976  0.34066  Biso   1.000  C 
  H383     1.0000 0.27823  0.39198  0.42376  Biso   1.000  H 
  H384     1.0000 0.24815  0.17211  0.59119  Biso   1.000  H 
  H385     1.0000 0.27920  0.30872  0.31329  Biso   1.000  H 
  H386     1.0000 0.29540  0.37168  0.33574  Biso   1.000  H 
  H387     1.0000 0.23091  0.35271  0.33751  Biso   1.000  H 
  C360     1.0000 0.18685  0.14858  0.66315  Biso   1.000  C 
  H388     1.0000 0.15172  0.15607  0.68335  Biso   1.000  H 
  H389     1.0000 0.21400  0.17855  0.67161  Biso   1.000  H 
  H390     1.0000 0.20237  0.11188  0.67470  Biso   1.000  H 
  H391     1.0000 0.23697  0.10780  0.57494  Biso   1.000  H 
  H392     1.0000 0.33490  0.36248  0.42024  Biso   1.000  H 
  H393     1.0000 0.15267  0.11159  0.59976  Biso   1.000  H 
  H394     1.0000 0.15012  0.17802  0.59891  Biso   1.000  H 
  H395     1.0000 0.23266  0.30634  0.40423  Biso   1.000  H 
  H396     1.0000 0.29248  0.28845  0.38890  Biso   1.000  H 
  O105     1.0000 0.92810  0.36740  0.50000  Biso   1.000  O 
  C361     1.0000 0.88280  0.38280  0.50000  Biso   1.000  C 
  O106     1.0000 0.86740  0.42810  0.50000  Biso   1.000  O 
  C362     1.0000 0.84350  0.34350  0.50000  Biso   1.000  C 
  C363     1.0000 0.85530  0.29420  0.50000  Biso   1.000  C 
  C364     1.0000 0.79420  0.35530  0.50000  Biso   1.000  C 
  C365     1.0000 0.82050  0.25800  0.50000  Biso   1.000  C 
  H397     1.0000 0.88860  0.28510  0.50000  Biso   1.000  H 
  C366     1.0000 0.75800  0.32050  0.50000  Biso   1.000  C 
  H398     1.0000 0.78510  0.38860  0.50000  Biso   1.000  H 
  C367     1.0000 0.76930  0.26930  0.50000  Biso   1.000  C 
  C368     1.0000 0.73070  0.23070  0.50000  Biso   1.000  C 
  H399     1.0000 0.83050  0.22490  0.50000  Biso   1.000  H 
  C369     1.0000 0.74200  0.17950  0.50000  Biso   1.000  C 
  N37      1.0000 0.70745  0.34037  0.51978  Biso   1.000  N 
  C370     1.0000 0.67950  0.24200  0.50000  Biso   1.000  C 
  C371     1.0000 0.70580  0.14470  0.50000  Biso   1.000  C 
  N38      1.0000 0.79080  0.16054  0.47706  Biso   1.000  N 
  C372     1.0000 0.64470  0.20580  0.50000  Biso   1.000  C 
  H400     1.0000 0.66950  0.27510  0.50000  Biso   1.000  H 
  C373     1.0000 0.65650  0.15650  0.50000  Biso   1.000  C 
  C374     1.0000 0.61720  0.11720  0.50000  Biso   1.000  C 
  H401     1.0000 0.71490  0.11140  0.50000  Biso   1.000  H 
  H402     1.0000 0.61140  0.21490  0.50000  Biso   1.000  H 
  O107     1.0000 0.63260  0.07190  0.50000  Biso   1.000  O 
  O108     1.0000 0.57190  0.13260  0.50000  Biso   1.000  O 
  C375     1.0000 0.77955  0.14579  0.42538  Biso   1.000  C 
  C376     1.0000 0.70462  0.35493  0.57261  Biso   1.000  C 
  C377     1.0000 0.82595  0.14581  0.39226  Biso   1.000  C 
  C378     1.0000 0.72974  0.31933  0.60553  Biso   1.000  C 
  H403     1.0000 0.69842  0.37270  0.49979  Biso   1.000  H 
  H404     1.0000 0.80197  0.12888  0.49686  Biso   1.000  H 
  C379     1.0000 0.73140  0.33976  0.65934  Biso   1.000  C 
  H405     1.0000 0.72177  0.39198  0.57624  Biso   1.000  H 
  H406     1.0000 0.75184  0.17211  0.40881  Biso   1.000  H 
  H407     1.0000 0.72081  0.30872  0.68672  Biso   1.000  H 
  H408     1.0000 0.70460  0.37168  0.66427  Biso   1.000  H 
  H409     1.0000 0.76908  0.35271  0.66249  Biso   1.000  H 
  C380     1.0000 0.81315  0.14858  0.33685  Biso   1.000  C 
  H410     1.0000 0.84828  0.15607  0.31665  Biso   1.000  H 
  H411     1.0000 0.78600  0.17855  0.32839  Biso   1.000  H 
  H412     1.0000 0.79764  0.11188  0.32530  Biso   1.000  H 
  H413     1.0000 0.76303  0.10780  0.42506  Biso   1.000  H 
  H414     1.0000 0.66510  0.36248  0.57976  Biso   1.000  H 
  H415     1.0000 0.84733  0.11159  0.40024  Biso   1.000  H 
  H416     1.0000 0.84988  0.17802  0.40109  Biso   1.000  H 
  H417     1.0000 0.76734  0.30634  0.59577  Biso   1.000  H 
  H418     1.0000 0.70752  0.28845  0.61110  Biso   1.000  H 
  O109     1.0000 0.92810  0.63260  0.50000  Biso   1.000  O 
  C381     1.0000 0.88280  0.61720  0.50000  Biso   1.000  C 
  O110     1.0000 0.86740  0.57190  0.50000  Biso   1.000  O 
  C382     1.0000 0.84350  0.65650  0.50000  Biso   1.000  C 
  C383     1.0000 0.85530  0.70580  0.50000  Biso   1.000  C 
  C384     1.0000 0.79420  0.64470  0.50000  Biso   1.000  C 
  C385     1.0000 0.82050  0.74200  0.50000  Biso   1.000  C 
  H419     1.0000 0.88860  0.71490  0.50000  Biso   1.000  H 
  C386     1.0000 0.75800  0.67950  0.50000  Biso   1.000  C 
  H420     1.0000 0.78510  0.61140  0.50000  Biso   1.000  H 
  C387     1.0000 0.76930  0.73070  0.50000  Biso   1.000  C 
  C388     1.0000 0.73070  0.76930  0.50000  Biso   1.000  C 
  H421     1.0000 0.83050  0.77510  0.50000  Biso   1.000  H 
  C389     1.0000 0.74200  0.82050  0.50000  Biso   1.000  C 
  N39      1.0000 0.70745  0.65963  0.48022  Biso   1.000  N 
  C390     1.0000 0.67950  0.75800  0.50000  Biso   1.000  C 
  C391     1.0000 0.70580  0.85530  0.50000  Biso   1.000  C 
  N40      1.0000 0.79080  0.83946  0.52294  Biso   1.000  N 
  C392     1.0000 0.64470  0.79420  0.50000  Biso   1.000  C 
  H422     1.0000 0.66950  0.72490  0.50000  Biso   1.000  H 
  C393     1.0000 0.65650  0.84350  0.50000  Biso   1.000  C 
  C394     1.0000 0.61720  0.88280  0.50000  Biso   1.000  C 
  H423     1.0000 0.71490  0.88860  0.50000  Biso   1.000  H 
  H424     1.0000 0.61140  0.78510  0.50000  Biso   1.000  H 
  O111     1.0000 0.63260  0.92810  0.50000  Biso   1.000  O 
  O112     1.0000 0.57190  0.86740  0.50000  Biso   1.000  O 
  C395     1.0000 0.77955  0.85422  0.57462  Biso   1.000  C 
  C396     1.0000 0.70462  0.64507  0.42739  Biso   1.000  C 
  C397     1.0000 0.82595  0.85419  0.60774  Biso   1.000  C 
  C398     1.0000 0.72974  0.68067  0.39447  Biso   1.000  C 
  H425     1.0000 0.69842  0.62730  0.50021  Biso   1.000  H 
  H426     1.0000 0.80197  0.87112  0.50314  Biso   1.000  H 
  C399     1.0000 0.73140  0.66024  0.34066  Biso   1.000  C 
  H427     1.0000 0.72177  0.60802  0.42376  Biso   1.000  H 
  H428     1.0000 0.75184  0.82789  0.59119  Biso   1.000  H 
  H429     1.0000 0.72081  0.69128  0.31329  Biso   1.000  H 
  H430     1.0000 0.70460  0.62832  0.33574  Biso   1.000  H 
  H431     1.0000 0.76908  0.64729  0.33751  Biso   1.000  H 
  C400     1.0000 0.81315  0.85142  0.66315  Biso   1.000  C 
  H432     1.0000 0.84828  0.84393  0.68335  Biso   1.000  H 
  H433     1.0000 0.78600  0.82145  0.67161  Biso   1.000  H 
  H434     1.0000 0.79764  0.88812  0.67470  Biso   1.000  H 
  H435     1.0000 0.76303  0.89220  0.57494  Biso   1.000  H 
  H436     1.0000 0.66510  0.63752  0.42024  Biso   1.000  H 
  H437     1.0000 0.84733  0.88841  0.59976  Biso   1.000  H 
  H438     1.0000 0.84988  0.82198  0.59891  Biso   1.000  H 
  H439     1.0000 0.76734  0.69366  0.40423  Biso   1.000  H 
  H440     1.0000 0.70752  0.71155  0.38890  Biso   1.000  H 
  O113     1.0000 0.50000  0.07190  0.63260  Biso   1.000  O 
  C401     1.0000 0.50000  0.11720  0.61720  Biso   1.000  C 
  O114     1.0000 0.50000  0.13260  0.57190  Biso   1.000  O 
  C402     1.0000 0.50000  0.15650  0.65650  Biso   1.000  C 
  C403     1.0000 0.50000  0.14470  0.70580  Biso   1.000  C 
  C404     1.0000 0.50000  0.20580  0.64470  Biso   1.000  C 
  C405     1.0000 0.50000  0.17950  0.74200  Biso   1.000  C 
  H441     1.0000 0.50000  0.11140  0.71490  Biso   1.000  H 
  C406     1.0000 0.50000  0.24200  0.67950  Biso   1.000  C 
  H442     1.0000 0.50000  0.21490  0.61140  Biso   1.000  H 
  C407     1.0000 0.50000  0.23070  0.73070  Biso   1.000  C 
  C408     1.0000 0.50000  0.26930  0.76930  Biso   1.000  C 
  H443     1.0000 0.50000  0.16950  0.77510  Biso   1.000  H 
  C409     1.0000 0.50000  0.25800  0.82050  Biso   1.000  C 
  N41      1.0000 0.49282  0.29265  0.65703  Biso   1.000  N 
  C410     1.0000 0.50000  0.32050  0.75800  Biso   1.000  C 
  C411     1.0000 0.50000  0.29420  0.85530  Biso   1.000  C 
  N42      1.0000 0.47280  0.21087  0.83665  Biso   1.000  N 
  C412     1.0000 0.50000  0.35530  0.79420  Biso   1.000  C 
  H444     1.0000 0.50000  0.33050  0.72490  Biso   1.000  H 
  C413     1.0000 0.50000  0.34350  0.84350  Biso   1.000  C 
  C414     1.0000 0.50000  0.38280  0.88280  Biso   1.000  C 
  H445     1.0000 0.50000  0.28510  0.88860  Biso   1.000  H 
  H446     1.0000 0.50000  0.38860  0.78510  Biso   1.000  H 
  O115     1.0000 0.50000  0.36740  0.92810  Biso   1.000  O 
  O116     1.0000 0.50000  0.42810  0.86740  Biso   1.000  O 
  C415     1.0000 0.42045  0.22459  0.83895  Biso   1.000  C 
  C416     1.0000 0.53925  0.30202  0.62894  Biso   1.000  C 
  C417     1.0000 0.38773  0.18194  0.85590  Biso   1.000  C 
  C418     1.0000 0.55466  0.35975  0.62255  Biso   1.000  C 
  H447     1.0000 0.46305  0.29658  0.63057  Biso   1.000  H 
  H448     1.0000 0.48552  0.19996  0.87175  Biso   1.000  H 
  C419     1.0000 0.54509  0.37976  0.56990  Biso   1.000  C 
  H449     1.0000 0.57491  0.28440  0.64794  Biso   1.000  H 
  H450     1.0000 0.40808  0.23731  0.80157  Biso   1.000  H 
  H451     1.0000 0.54401  0.34927  0.54198  Biso   1.000  H 
  H452     1.0000 0.57446  0.40685  0.55839  Biso   1.000  H 
  H453     1.0000 0.50984  0.39968  0.56998  Biso   1.000  H 
  C420     1.0000 0.33139  0.19404  0.84914  Biso   1.000  C 
  H454     1.0000 0.31185  0.15772  0.85181  Biso   1.000  H 
  H455     1.0000 0.32229  0.21177  0.81299  Biso   1.000  H 
  H456     1.0000 0.31826  0.21902  0.87927  Biso   1.000  H 
  H457     1.0000 0.41388  0.25493  0.86620  Biso   1.000  H 
  H458     1.0000 0.53806  0.28399  0.59108  Biso   1.000  H 
  H459     1.0000 0.39569  0.17581  0.89611  Biso   1.000  H 
  H460     1.0000 0.39735  0.14742  0.83552  Biso   1.000  H 
  H461     1.0000 0.59672  0.36273  0.62919  Biso   1.000  H 
  H462     1.0000 0.53396  0.38448  0.64896  Biso   1.000  H 
  O117     1.0000 0.50000  0.07190  0.36740  Biso   1.000  O 
  C421     1.0000 0.50000  0.11720  0.38280  Biso   1.000  C 
  O118     1.0000 0.50000  0.13260  0.42810  Biso   1.000  O 
  C422     1.0000 0.50000  0.15650  0.34350  Biso   1.000  C 
  C423     1.0000 0.50000  0.14470  0.29420  Biso   1.000  C 
  C424     1.0000 0.50000  0.20580  0.35530  Biso   1.000  C 
  C425     1.0000 0.50000  0.17950  0.25800  Biso   1.000  C 
  H463     1.0000 0.50000  0.11140  0.28510  Biso   1.000  H 
  C426     1.0000 0.50000  0.24200  0.32050  Biso   1.000  C 
  H464     1.0000 0.50000  0.21490  0.38860  Biso   1.000  H 
  C427     1.0000 0.50000  0.23070  0.26930  Biso   1.000  C 
  C428     1.0000 0.50000  0.26930  0.23070  Biso   1.000  C 
  H465     1.0000 0.50000  0.16950  0.22490  Biso   1.000  H 
  C429     1.0000 0.50000  0.25800  0.17950  Biso   1.000  C 
  N43      1.0000 0.50718  0.29265  0.34297  Biso   1.000  N 
  C430     1.0000 0.50000  0.32050  0.24200  Biso   1.000  C 
  C431     1.0000 0.50000  0.29420  0.14470  Biso   1.000  C 
  N44      1.0000 0.52720  0.21087  0.16335  Biso   1.000  N 
  C432     1.0000 0.50000  0.35530  0.20580  Biso   1.000  C 
  H466     1.0000 0.50000  0.33050  0.27510  Biso   1.000  H 
  C433     1.0000 0.50000  0.34350  0.15650  Biso   1.000  C 
  C434     1.0000 0.50000  0.38280  0.11720  Biso   1.000  C 
  H467     1.0000 0.50000  0.28510  0.11140  Biso   1.000  H 
  H468     1.0000 0.50000  0.38860  0.21490  Biso   1.000  H 
  O119     1.0000 0.50000  0.36740  0.07190  Biso   1.000  O 
  O120     1.0000 0.50000  0.42810  0.13260  Biso   1.000  O 
  C435     1.0000 0.57955  0.22459  0.16105  Biso   1.000  C 
  C436     1.0000 0.46075  0.30202  0.37106  Biso   1.000  C 
  C437     1.0000 0.61227  0.18194  0.14410  Biso   1.000  C 
  C438     1.0000 0.44534  0.35975  0.37745  Biso   1.000  C 
  H469     1.0000 0.53695  0.29658  0.36943  Biso   1.000  H 
  H470     1.0000 0.51448  0.19996  0.12825  Biso   1.000  H 
  C439     1.0000 0.45491  0.37976  0.43010  Biso   1.000  C 
  H471     1.0000 0.42509  0.28440  0.35205  Biso   1.000  H 
  H472     1.0000 0.59192  0.23731  0.19843  Biso   1.000  H 
  H473     1.0000 0.45599  0.34927  0.45802  Biso   1.000  H 
  H474     1.0000 0.42554  0.40685  0.44161  Biso   1.000  H 
  H475     1.0000 0.49016  0.39968  0.43002  Biso   1.000  H 
  C440     1.0000 0.66861  0.19404  0.15086  Biso   1.000  C 
  H476     1.0000 0.68815  0.15772  0.14818  Biso   1.000  H 
  H477     1.0000 0.67771  0.21177  0.18701  Biso   1.000  H 
  H478     1.0000 0.68174  0.21902  0.12073  Biso   1.000  H 
  H479     1.0000 0.58612  0.25493  0.13380  Biso   1.000  H 
  H480     1.0000 0.46194  0.28399  0.40892  Biso   1.000  H 
  H481     1.0000 0.60431  0.17581  0.10389  Biso   1.000  H 
  H482     1.0000 0.60265  0.14742  0.16448  Biso   1.000  H 
  H483     1.0000 0.40328  0.36273  0.37081  Biso   1.000  H 
  H484     1.0000 0.46604  0.38448  0.35104  Biso   1.000  H 
  O121     1.0000 0.50000  0.92810  0.36740  Biso   1.000  O 
  C441     1.0000 0.50000  0.88280  0.38280  Biso   1.000  C 
  O122     1.0000 0.50000  0.86740  0.42810  Biso   1.000  O 
  C442     1.0000 0.50000  0.84350  0.34350  Biso   1.000  C 
  C443     1.0000 0.50000  0.85530  0.29420  Biso   1.000  C 
  C444     1.0000 0.50000  0.79420  0.35530  Biso   1.000  C 
  C445     1.0000 0.50000  0.82050  0.25800  Biso   1.000  C 
  H485     1.0000 0.50000  0.88860  0.28510  Biso   1.000  H 
  C446     1.0000 0.50000  0.75800  0.32050  Biso   1.000  C 
  H486     1.0000 0.50000  0.78510  0.38860  Biso   1.000  H 
  C447     1.0000 0.50000  0.76930  0.26930  Biso   1.000  C 
  C448     1.0000 0.50000  0.73070  0.23070  Biso   1.000  C 
  H487     1.0000 0.50000  0.83050  0.22490  Biso   1.000  H 
  C449     1.0000 0.50000  0.74200  0.17950  Biso   1.000  C 
  N45      1.0000 0.49282  0.70735  0.34297  Biso   1.000  N 
  C450     1.0000 0.50000  0.67950  0.24200  Biso   1.000  C 
  C451     1.0000 0.50000  0.70580  0.14470  Biso   1.000  C 
  N46      1.0000 0.47280  0.78913  0.16335  Biso   1.000  N 
  C452     1.0000 0.50000  0.64470  0.20580  Biso   1.000  C 
  H488     1.0000 0.50000  0.66950  0.27510  Biso   1.000  H 
  C453     1.0000 0.50000  0.65650  0.15650  Biso   1.000  C 
  C454     1.0000 0.50000  0.61720  0.11720  Biso   1.000  C 
  H489     1.0000 0.50000  0.71490  0.11140  Biso   1.000  H 
  H490     1.0000 0.50000  0.61140  0.21490  Biso   1.000  H 
  O123     1.0000 0.50000  0.63260  0.07190  Biso   1.000  O 
  O124     1.0000 0.50000  0.57190  0.13260  Biso   1.000  O 
  C455     1.0000 0.42045  0.77541  0.16105  Biso   1.000  C 
  C456     1.0000 0.53925  0.69798  0.37106  Biso   1.000  C 
  C457     1.0000 0.38773  0.81806  0.14410  Biso   1.000  C 
  C458     1.0000 0.55466  0.64026  0.37745  Biso   1.000  C 
  H491     1.0000 0.46305  0.70342  0.36943  Biso   1.000  H 
  H492     1.0000 0.48552  0.80004  0.12825  Biso   1.000  H 
  C459     1.0000 0.54509  0.62024  0.43010  Biso   1.000  C 
  H493     1.0000 0.57491  0.71560  0.35205  Biso   1.000  H 
  H494     1.0000 0.40808  0.76269  0.19843  Biso   1.000  H 
  H495     1.0000 0.54401  0.65073  0.45802  Biso   1.000  H 
  H496     1.0000 0.57446  0.59315  0.44161  Biso   1.000  H 
  H497     1.0000 0.50984  0.60032  0.43002  Biso   1.000  H 
  C460     1.0000 0.33139  0.80596  0.15086  Biso   1.000  C 
  H498     1.0000 0.31185  0.84228  0.14818  Biso   1.000  H 
  H499     1.0000 0.32229  0.78823  0.18701  Biso   1.000  H 
  H500     1.0000 0.31826  0.78098  0.12073  Biso   1.000  H 
  H501     1.0000 0.41388  0.74507  0.13380  Biso   1.000  H 
  H502     1.0000 0.53806  0.71601  0.40892  Biso   1.000  H 
  H503     1.0000 0.39569  0.82419  0.10389  Biso   1.000  H 
  H504     1.0000 0.39735  0.85258  0.16448  Biso   1.000  H 
  H505     1.0000 0.59672  0.63727  0.37081  Biso   1.000  H 
  H506     1.0000 0.53396  0.61552  0.35104  Biso   1.000  H 
  O125     1.0000 0.50000  0.92810  0.63260  Biso   1.000  O 
  C461     1.0000 0.50000  0.88280  0.61720  Biso   1.000  C 
  O126     1.0000 0.50000  0.86740  0.57190  Biso   1.000  O 
  C462     1.0000 0.50000  0.84350  0.65650  Biso   1.000  C 
  C463     1.0000 0.50000  0.85530  0.70580  Biso   1.000  C 
  C464     1.0000 0.50000  0.79420  0.64470  Biso   1.000  C 
  C465     1.0000 0.50000  0.82050  0.74200  Biso   1.000  C 
  H507     1.0000 0.50000  0.88860  0.71490  Biso   1.000  H 
  C466     1.0000 0.50000  0.75800  0.67950  Biso   1.000  C 
  H508     1.0000 0.50000  0.78510  0.61140  Biso   1.000  H 
  C467     1.0000 0.50000  0.76930  0.73070  Biso   1.000  C 
  C468     1.0000 0.50000  0.73070  0.76930  Biso   1.000  C 
  H509     1.0000 0.50000  0.83050  0.77510  Biso   1.000  H 
  C469     1.0000 0.50000  0.74200  0.82050  Biso   1.000  C 
  N47      1.0000 0.50718  0.70735  0.65703  Biso   1.000  N 
  C470     1.0000 0.50000  0.67950  0.75800  Biso   1.000  C 
  C471     1.0000 0.50000  0.70580  0.85530  Biso   1.000  C 
  N48      1.0000 0.52720  0.78913  0.83665  Biso   1.000  N 
  C472     1.0000 0.50000  0.64470  0.79420  Biso   1.000  C 
  H510     1.0000 0.50000  0.66950  0.72490  Biso   1.000  H 
  C473     1.0000 0.50000  0.65650  0.84350  Biso   1.000  C 
  C474     1.0000 0.50000  0.61720  0.88280  Biso   1.000  C 
  H511     1.0000 0.50000  0.71490  0.88860  Biso   1.000  H 
  H512     1.0000 0.50000  0.61140  0.78510  Biso   1.000  H 
  O127     1.0000 0.50000  0.63260  0.92810  Biso   1.000  O 
  O128     1.0000 0.50000  0.57190  0.86740  Biso   1.000  O 
  C475     1.0000 0.57955  0.77541  0.83895  Biso   1.000  C 
  C476     1.0000 0.46075  0.69798  0.62894  Biso   1.000  C 
  C477     1.0000 0.61227  0.81806  0.85590  Biso   1.000  C 
  C478     1.0000 0.44534  0.64026  0.62255  Biso   1.000  C 
  H513     1.0000 0.53695  0.70342  0.63057  Biso   1.000  H 
  H514     1.0000 0.51448  0.80004  0.87175  Biso   1.000  H 
  C479     1.0000 0.45491  0.62024  0.56990  Biso   1.000  C 
  H515     1.0000 0.42509  0.71560  0.64794  Biso   1.000  H 
  H516     1.0000 0.59192  0.76269  0.80157  Biso   1.000  H 
  H517     1.0000 0.45599  0.65073  0.54198  Biso   1.000  H 
  H518     1.0000 0.42554  0.59315  0.55839  Biso   1.000  H 
  H519     1.0000 0.49016  0.60032  0.56998  Biso   1.000  H 
  C480     1.0000 0.66861  0.80596  0.84914  Biso   1.000  C 
  H520     1.0000 0.68815  0.84228  0.85181  Biso   1.000  H 
  H521     1.0000 0.67771  0.78823  0.81299  Biso   1.000  H 
  H522     1.0000 0.68174  0.78098  0.87927  Biso   1.000  H 
  H523     1.0000 0.58612  0.74507  0.86620  Biso   1.000  H 
  H524     1.0000 0.46194  0.71601  0.59108  Biso   1.000  H 
  H525     1.0000 0.60431  0.82419  0.89611  Biso   1.000  H 
  H526     1.0000 0.60265  0.85258  0.83552  Biso   1.000  H 
  H527     1.0000 0.40328  0.63727  0.62919  Biso   1.000  H 
  H528     1.0000 0.46604  0.61552  0.64896  Biso   1.000  H 
