data_image0
_cell_length_a       26.896
_cell_length_b       26.896
_cell_length_c       26.896
_cell_angle_alpha    90
_cell_angle_beta     90
_cell_angle_gamma    90

_symmetry_space_group_name_H-M    "P 1"
_symmetry_int_tables_number       1

loop_
  _symmetry_equiv_pos_as_xyz
  'x, y, z'

loop_
  _atom_site_label
  _atom_site_occupancy
  _atom_site_fract_x
  _atom_site_fract_y
  _atom_site_fract_z
  _atom_site_thermal_displace_type
  _atom_site_B_iso_or_equiv
  _atom_site_type_symbol
  Zr1      1.0000 0.09204  0.00000  0.00000  Biso   1.000  Zr
  Zr2      1.0000 0.90796  0.00000  0.00000  Biso   1.000  Zr
  Zr3      1.0000 0.00000  0.09204  0.00000  Biso   1.000  Zr
  Zr4      1.0000 0.00000  0.90796  0.00000  Biso   1.000  Zr
  Zr5      1.0000 0.00000  0.00000  0.09204  Biso   1.000  Zr
  Zr6      1.0000 0.00000  0.00000  0.90796  Biso   1.000  Zr
  Zr7      1.0000 0.09204  0.50000  0.50000  Biso   1.000  Zr
  Zr8      1.0000 0.90796  0.50000  0.50000  Biso   1.000  Zr
  Zr9      1.0000 0.00000  0.59204  0.50000  Biso   1.000  Zr
  Zr10     1.0000 0.00000  0.40796  0.50000  Biso   1.000  Zr
  Zr11     1.0000 0.00000  0.50000  0.59204  Biso   1.000  Zr
  Zr12     1.0000 0.00000  0.50000  0.40796  Biso   1.000  Zr
  Zr13     1.0000 0.59204  0.00000  0.50000  Biso   1.000  Zr
  Zr14     1.0000 0.40796  0.00000  0.50000  Biso   1.000  Zr
  Zr15     1.0000 0.50000  0.09204  0.50000  Biso   1.000  Zr
  Zr16     1.0000 0.50000  0.90796  0.50000  Biso   1.000  Zr
  Zr17     1.0000 0.50000  0.00000  0.59204  Biso   1.000  Zr
  Zr18     1.0000 0.50000  0.00000  0.40796  Biso   1.000  Zr
  Zr19     1.0000 0.59204  0.50000  0.00000  Biso   1.000  Zr
  Zr20     1.0000 0.40796  0.50000  0.00000  Biso   1.000  Zr
  Zr21     1.0000 0.50000  0.59204  0.00000  Biso   1.000  Zr
  Zr22     1.0000 0.50000  0.40796  0.00000  Biso   1.000  Zr
  Zr23     1.0000 0.50000  0.50000  0.09204  Biso   1.000  Zr
  Zr24     1.0000 0.50000  0.50000  0.90796  Biso   1.000  Zr
  O1       1.0000 0.04540  0.04540  0.04540  Biso   1.000  O 
  O2       1.0000 0.95460  0.95460  0.04540  Biso   1.000  O 
  O3       1.0000 0.95460  0.04540  0.95460  Biso   1.000  O 
  O4       1.0000 0.04540  0.95460  0.95460  Biso   1.000  O 
  O5       1.0000 0.04540  0.04540  0.95460  Biso   1.000  O 
  O6       1.0000 0.95460  0.95460  0.95460  Biso   1.000  O 
  O7       1.0000 0.04540  0.95460  0.04540  Biso   1.000  O 
  O8       1.0000 0.95460  0.04540  0.04540  Biso   1.000  O 
  O9       1.0000 0.04540  0.54540  0.54540  Biso   1.000  O 
  O10      1.0000 0.95460  0.45460  0.54540  Biso   1.000  O 
  O11      1.0000 0.95460  0.54540  0.45460  Biso   1.000  O 
  O12      1.0000 0.04540  0.45460  0.45460  Biso   1.000  O 
  O13      1.0000 0.04540  0.54540  0.45460  Biso   1.000  O 
  O14      1.0000 0.95460  0.45460  0.45460  Biso   1.000  O 
  O15      1.0000 0.04540  0.45460  0.54540  Biso   1.000  O 
  O16      1.0000 0.95460  0.54540  0.54540  Biso   1.000  O 
  O17      1.0000 0.54540  0.04540  0.54540  Biso   1.000  O 
  O18      1.0000 0.45460  0.95460  0.54540  Biso   1.000  O 
  O19      1.0000 0.45460  0.04540  0.45460  Biso   1.000  O 
  O20      1.0000 0.54540  0.95460  0.45460  Biso   1.000  O 
  O21      1.0000 0.54540  0.04540  0.45460  Biso   1.000  O 
  O22      1.0000 0.45460  0.95460  0.45460  Biso   1.000  O 
  O23      1.0000 0.54540  0.95460  0.54540  Biso   1.000  O 
  O24      1.0000 0.45460  0.04540  0.54540  Biso   1.000  O 
  O25      1.0000 0.54540  0.54540  0.04540  Biso   1.000  O 
  O26      1.0000 0.45460  0.45460  0.04540  Biso   1.000  O 
  O27      1.0000 0.45460  0.54540  0.95460  Biso   1.000  O 
  O28      1.0000 0.54540  0.45460  0.95460  Biso   1.000  O 
  O29      1.0000 0.54540  0.54540  0.95460  Biso   1.000  O 
  O30      1.0000 0.45460  0.45460  0.95460  Biso   1.000  O 
  O31      1.0000 0.54540  0.45460  0.04540  Biso   1.000  O 
  O32      1.0000 0.45460  0.54540  0.04540  Biso   1.000  O 
  O33      1.0000 0.13260  0.00000  0.07190  Biso   1.000  O 
  C1       1.0000 0.11720  0.00000  0.11720  Biso   1.000  C 
  O34      1.0000 0.07190  0.00000  0.13260  Biso   1.000  O 
  C2       1.0000 0.15650  0.00000  0.15650  Biso   1.000  C 
  C3       1.0000 0.20580  0.00000  0.14470  Biso   1.000  C 
  C4       1.0000 0.14470  0.00000  0.20580  Biso   1.000  C 
  C5       1.0000 0.24200  0.00000  0.17950  Biso   1.000  C 
  H1       1.0000 0.21490  0.00000  0.11140  Biso   1.000  H 
  C6       1.0000 0.17950  0.00000  0.24200  Biso   1.000  C 
  H2       1.0000 0.11140  0.00000  0.21490  Biso   1.000  H 
  C7       1.0000 0.23070  0.00000  0.23070  Biso   1.000  C 
  C8       1.0000 0.26930  0.00000  0.26930  Biso   1.000  C 
  H3       1.0000 0.27510  0.00000  0.16950  Biso   1.000  H 
  C9       1.0000 0.32050  0.00000  0.25800  Biso   1.000  C 
  H4       1.0000 0.16950  0.00000  0.27510  Biso   1.000  H 
  C10      1.0000 0.25800  0.00000  0.32050  Biso   1.000  C 
  C11      1.0000 0.35530  0.00000  0.29420  Biso   1.000  C 
  N1       1.0000 0.33685  0.02823  0.21082  Biso   1.000  N 
  C12      1.0000 0.29420  0.00000  0.35530  Biso   1.000  C 
  H5       1.0000 0.22490  0.00000  0.33050  Biso   1.000  H 
  C13      1.0000 0.34350  0.00000  0.34350  Biso   1.000  C 
  C14      1.0000 0.38280  0.00000  0.38280  Biso   1.000  C 
  H6       1.0000 0.38860  0.00000  0.28510  Biso   1.000  H 
  H7       1.0000 0.28510  0.00000  0.38860  Biso   1.000  H 
  O35      1.0000 0.42810  0.00000  0.36740  Biso   1.000  O 
  O36      1.0000 0.36740  0.00000  0.42810  Biso   1.000  O 
  H8       1.0000 0.34808  0.06367  0.22305  Biso   1.000  H 
  C15      1.0000 0.37640  0.00647  0.17966  Biso   1.000  C 
  C16      1.0000 0.37924  0.03402  0.12733  Biso   1.000  C 
  C17      1.0000 0.42842  0.01841  0.10308  Biso   1.000  C 
  C18      1.0000 0.37884  0.09138  0.12849  Biso   1.000  C 
  C19      1.0000 0.33747  0.01526  0.09176  Biso   1.000  C 
  H9       1.0000 0.40698  0.10645  0.15520  Biso   1.000  H 
  H10      1.0000 0.34111  0.10452  0.13894  Biso   1.000  H 
  H11      1.0000 0.38910  0.10813  0.09305  Biso   1.000  H 
  H12      1.0000 0.46058  0.03777  0.11886  Biso   1.000  H 
  H13      1.0000 0.42689  0.02780  0.06245  Biso   1.000  H 
  H14      1.0000 0.43586  0.98020  0.10560  Biso   1.000  H 
  H15      1.0000 0.30226  0.03124  0.10393  Biso   1.000  H 
  H16      1.0000 0.33115  0.97483  0.09317  Biso   1.000  H 
  H17      1.0000 0.34573  0.02924  0.05358  Biso   1.000  H 
  H18      1.0000 0.36907  0.96627  0.17449  Biso   1.000  H 
  H19      1.0000 0.41408  0.01062  0.19830  Biso   1.000  H 
  O37      1.0000 0.86740  0.00000  0.07190  Biso   1.000  O 
  C20      1.0000 0.88280  0.00000  0.11720  Biso   1.000  C 
  O38      1.0000 0.92810  0.00000  0.13260  Biso   1.000  O 
  C21      1.0000 0.84350  0.00000  0.15650  Biso   1.000  C 
  C22      1.0000 0.79420  0.00000  0.14470  Biso   1.000  C 
  C23      1.0000 0.85530  0.00000  0.20580  Biso   1.000  C 
  C24      1.0000 0.75800  0.00000  0.17950  Biso   1.000  C 
  H20      1.0000 0.78510  0.00000  0.11140  Biso   1.000  H 
  C25      1.0000 0.82050  0.00000  0.24200  Biso   1.000  C 
  H21      1.0000 0.88860  0.00000  0.21490  Biso   1.000  H 
  C26      1.0000 0.76930  0.00000  0.23070  Biso   1.000  C 
  C27      1.0000 0.73070  0.00000  0.26930  Biso   1.000  C 
  H22      1.0000 0.72490  0.00000  0.16950  Biso   1.000  H 
  C28      1.0000 0.67950  0.00000  0.25800  Biso   1.000  C 
  H23      1.0000 0.83050  0.00000  0.27510  Biso   1.000  H 
  C29      1.0000 0.74200  0.00000  0.32050  Biso   1.000  C 
  C30      1.0000 0.64470  0.00000  0.29420  Biso   1.000  C 
  N2       1.0000 0.66315  0.97177  0.21082  Biso   1.000  N 
  C31      1.0000 0.70580  0.00000  0.35530  Biso   1.000  C 
  H24      1.0000 0.77510  0.00000  0.33050  Biso   1.000  H 
  C32      1.0000 0.65650  0.00000  0.34350  Biso   1.000  C 
  C33      1.0000 0.61720  0.00000  0.38280  Biso   1.000  C 
  H25      1.0000 0.61140  0.00000  0.28510  Biso   1.000  H 
  H26      1.0000 0.71490  0.00000  0.38860  Biso   1.000  H 
  O39      1.0000 0.57190  0.00000  0.36740  Biso   1.000  O 
  O40      1.0000 0.63260  0.00000  0.42810  Biso   1.000  O 
  H27      1.0000 0.65191  0.93633  0.22305  Biso   1.000  H 
  C34      1.0000 0.62360  0.99353  0.17966  Biso   1.000  C 
  C35      1.0000 0.62076  0.96598  0.12733  Biso   1.000  C 
  C36      1.0000 0.57158  0.98159  0.10308  Biso   1.000  C 
  C37      1.0000 0.62116  0.90862  0.12849  Biso   1.000  C 
  C38      1.0000 0.66253  0.98474  0.09176  Biso   1.000  C 
  H28      1.0000 0.59302  0.89355  0.15520  Biso   1.000  H 
  H29      1.0000 0.65889  0.89548  0.13894  Biso   1.000  H 
  H30      1.0000 0.61090  0.89188  0.09305  Biso   1.000  H 
  H31      1.0000 0.53942  0.96223  0.11886  Biso   1.000  H 
  H32      1.0000 0.57311  0.97220  0.06245  Biso   1.000  H 
  H33      1.0000 0.56414  0.01980  0.10560  Biso   1.000  H 
  H34      1.0000 0.69774  0.96876  0.10393  Biso   1.000  H 
  H35      1.0000 0.66885  0.02517  0.09317  Biso   1.000  H 
  H36      1.0000 0.65427  0.97076  0.05358  Biso   1.000  H 
  H37      1.0000 0.63093  0.03373  0.17449  Biso   1.000  H 
  H38      1.0000 0.58592  0.98939  0.19830  Biso   1.000  H 
  O41      1.0000 0.86740  0.00000  0.92810  Biso   1.000  O 
  C39      1.0000 0.88280  0.00000  0.88280  Biso   1.000  C 
  O42      1.0000 0.92810  0.00000  0.86740  Biso   1.000  O 
  C40      1.0000 0.84350  0.00000  0.84350  Biso   1.000  C 
  C41      1.0000 0.79420  0.00000  0.85530  Biso   1.000  C 
  C42      1.0000 0.85530  0.00000  0.79420  Biso   1.000  C 
  C43      1.0000 0.75800  0.00000  0.82050  Biso   1.000  C 
  H39      1.0000 0.78510  0.00000  0.88860  Biso   1.000  H 
  C44      1.0000 0.82050  0.00000  0.75800  Biso   1.000  C 
  H40      1.0000 0.88860  0.00000  0.78510  Biso   1.000  H 
  C45      1.0000 0.76930  0.00000  0.76930  Biso   1.000  C 
  C46      1.0000 0.73070  0.00000  0.73070  Biso   1.000  C 
  H41      1.0000 0.72490  0.00000  0.83050  Biso   1.000  H 
  C47      1.0000 0.67950  0.00000  0.74200  Biso   1.000  C 
  H42      1.0000 0.83050  0.00000  0.72490  Biso   1.000  H 
  C48      1.0000 0.74200  0.00000  0.67950  Biso   1.000  C 
  C49      1.0000 0.64470  0.00000  0.70580  Biso   1.000  C 
  N3       1.0000 0.66315  0.02823  0.78918  Biso   1.000  N 
  C50      1.0000 0.70580  0.00000  0.64470  Biso   1.000  C 
  H43      1.0000 0.77510  0.00000  0.66950  Biso   1.000  H 
  C51      1.0000 0.65650  0.00000  0.65650  Biso   1.000  C 
  C52      1.0000 0.61720  0.00000  0.61720  Biso   1.000  C 
  H44      1.0000 0.61140  0.00000  0.71490  Biso   1.000  H 
  H45      1.0000 0.71490  0.00000  0.61140  Biso   1.000  H 
  O43      1.0000 0.57190  0.00000  0.63260  Biso   1.000  O 
  O44      1.0000 0.63260  0.00000  0.57190  Biso   1.000  O 
  H46      1.0000 0.65191  0.06367  0.77695  Biso   1.000  H 
  C53      1.0000 0.62360  0.00647  0.82033  Biso   1.000  C 
  C54      1.0000 0.62076  0.03402  0.87267  Biso   1.000  C 
  C55      1.0000 0.57158  0.01841  0.89692  Biso   1.000  C 
  C56      1.0000 0.62116  0.09138  0.87151  Biso   1.000  C 
  C57      1.0000 0.66253  0.01526  0.90824  Biso   1.000  C 
  H47      1.0000 0.59302  0.10645  0.84479  Biso   1.000  H 
  H48      1.0000 0.65889  0.10452  0.86106  Biso   1.000  H 
  H49      1.0000 0.61090  0.10813  0.90695  Biso   1.000  H 
  H50      1.0000 0.53942  0.03777  0.88114  Biso   1.000  H 
  H51      1.0000 0.57311  0.02780  0.93755  Biso   1.000  H 
  H52      1.0000 0.56414  0.98020  0.89440  Biso   1.000  H 
  H53      1.0000 0.69774  0.03124  0.89607  Biso   1.000  H 
  H54      1.0000 0.66885  0.97483  0.90683  Biso   1.000  H 
  H55      1.0000 0.65427  0.02924  0.94642  Biso   1.000  H 
  H56      1.0000 0.63093  0.96627  0.82551  Biso   1.000  H 
  H57      1.0000 0.58592  0.01062  0.80170  Biso   1.000  H 
  O45      1.0000 0.13260  0.00000  0.92810  Biso   1.000  O 
  C58      1.0000 0.11720  0.00000  0.88280  Biso   1.000  C 
  O46      1.0000 0.07190  0.00000  0.86740  Biso   1.000  O 
  C59      1.0000 0.15650  0.00000  0.84350  Biso   1.000  C 
  C60      1.0000 0.20580  0.00000  0.85530  Biso   1.000  C 
  C61      1.0000 0.14470  0.00000  0.79420  Biso   1.000  C 
  C62      1.0000 0.24200  0.00000  0.82050  Biso   1.000  C 
  H58      1.0000 0.21490  0.00000  0.88860  Biso   1.000  H 
  C63      1.0000 0.17950  0.00000  0.75800  Biso   1.000  C 
  H59      1.0000 0.11140  0.00000  0.78510  Biso   1.000  H 
  C64      1.0000 0.23070  0.00000  0.76930  Biso   1.000  C 
  C65      1.0000 0.26930  0.00000  0.73070  Biso   1.000  C 
  H60      1.0000 0.27510  0.00000  0.83050  Biso   1.000  H 
  C66      1.0000 0.32050  0.00000  0.74200  Biso   1.000  C 
  H61      1.0000 0.16950  0.00000  0.72490  Biso   1.000  H 
  C67      1.0000 0.25800  0.00000  0.67950  Biso   1.000  C 
  C68      1.0000 0.35530  0.00000  0.70580  Biso   1.000  C 
  N4       1.0000 0.33685  0.97177  0.78918  Biso   1.000  N 
  C69      1.0000 0.29420  0.00000  0.64470  Biso   1.000  C 
  H62      1.0000 0.22490  0.00000  0.66950  Biso   1.000  H 
  C70      1.0000 0.34350  0.00000  0.65650  Biso   1.000  C 
  C71      1.0000 0.38280  0.00000  0.61720  Biso   1.000  C 
  H63      1.0000 0.38860  0.00000  0.71490  Biso   1.000  H 
  H64      1.0000 0.28510  0.00000  0.61140  Biso   1.000  H 
  O47      1.0000 0.42810  0.00000  0.63260  Biso   1.000  O 
  O48      1.0000 0.36740  0.00000  0.57190  Biso   1.000  O 
  H65      1.0000 0.34808  0.93633  0.77695  Biso   1.000  H 
  C72      1.0000 0.37640  0.99353  0.82033  Biso   1.000  C 
  C73      1.0000 0.37924  0.96598  0.87267  Biso   1.000  C 
  C74      1.0000 0.42842  0.98159  0.89692  Biso   1.000  C 
  C75      1.0000 0.37884  0.90862  0.87151  Biso   1.000  C 
  C76      1.0000 0.33747  0.98474  0.90824  Biso   1.000  C 
  H66      1.0000 0.40698  0.89355  0.84479  Biso   1.000  H 
  H67      1.0000 0.34111  0.89548  0.86106  Biso   1.000  H 
  H68      1.0000 0.38910  0.89188  0.90695  Biso   1.000  H 
  H69      1.0000 0.46058  0.96223  0.88114  Biso   1.000  H 
  H70      1.0000 0.42689  0.97220  0.93755  Biso   1.000  H 
  H71      1.0000 0.43586  0.01980  0.89440  Biso   1.000  H 
  H72      1.0000 0.30226  0.96876  0.89607  Biso   1.000  H 
  H73      1.0000 0.33115  0.02517  0.90683  Biso   1.000  H 
  H74      1.0000 0.34573  0.97076  0.94642  Biso   1.000  H 
  H75      1.0000 0.36907  0.03373  0.82551  Biso   1.000  H 
  H76      1.0000 0.41408  0.98939  0.80170  Biso   1.000  H 
  O49      1.0000 0.07190  0.13260  0.00000  Biso   1.000  O 
  C77      1.0000 0.11720  0.11720  0.00000  Biso   1.000  C 
  O50      1.0000 0.13260  0.07190  0.00000  Biso   1.000  O 
  C78      1.0000 0.15650  0.15650  0.00000  Biso   1.000  C 
  C79      1.0000 0.14470  0.20580  0.00000  Biso   1.000  C 
  C80      1.0000 0.20580  0.14470  0.00000  Biso   1.000  C 
  C81      1.0000 0.17950  0.24200  0.00000  Biso   1.000  C 
  H77      1.0000 0.11140  0.21490  0.00000  Biso   1.000  H 
  C82      1.0000 0.24200  0.17950  0.00000  Biso   1.000  C 
  H78      1.0000 0.21490  0.11140  0.00000  Biso   1.000  H 
  C83      1.0000 0.23070  0.23070  0.00000  Biso   1.000  C 
  C84      1.0000 0.26930  0.26930  0.00000  Biso   1.000  C 
  H79      1.0000 0.16950  0.27510  0.00000  Biso   1.000  H 
  C85      1.0000 0.25800  0.32050  0.00000  Biso   1.000  C 
  H80      1.0000 0.27510  0.16950  0.00000  Biso   1.000  H 
  C86      1.0000 0.32050  0.25800  0.00000  Biso   1.000  C 
  C87      1.0000 0.29420  0.35530  0.00000  Biso   1.000  C 
  N5       1.0000 0.20537  0.34082  0.98692  Biso   1.000  N 
  C88      1.0000 0.35530  0.29420  0.00000  Biso   1.000  C 
  H81      1.0000 0.33050  0.22490  0.00000  Biso   1.000  H 
  C89      1.0000 0.34350  0.34350  0.00000  Biso   1.000  C 
  C90      1.0000 0.38280  0.38280  0.00000  Biso   1.000  C 
  H82      1.0000 0.28510  0.38860  0.00000  Biso   1.000  H 
  H83      1.0000 0.38860  0.28510  0.00000  Biso   1.000  H 
  O51      1.0000 0.36740  0.42810  0.00000  Biso   1.000  O 
  O52      1.0000 0.42810  0.36740  0.00000  Biso   1.000  O 
  H84      1.0000 0.19880  0.37090  0.01051  Biso   1.000  H 
  C91      1.0000 0.19951  0.35703  0.93464  Biso   1.000  C 
  C92      1.0000 0.14439  0.36621  0.91750  Biso   1.000  C 
  C93      1.0000 0.14526  0.39507  0.86865  Biso   1.000  C 
  C94      1.0000 0.11548  0.39600  0.95686  Biso   1.000  C 
  C95      1.0000 0.11748  0.31691  0.90710  Biso   1.000  C 
  H85      1.0000 0.13205  0.43398  0.96246  Biso   1.000  H 
  H86      1.0000 0.11663  0.37598  0.99227  Biso   1.000  H 
  H87      1.0000 0.07599  0.40135  0.94546  Biso   1.000  H 
  H88      1.0000 0.16149  0.43202  0.87499  Biso   1.000  H 
  H89      1.0000 0.10764  0.39933  0.85285  Biso   1.000  H 
  H90      1.0000 0.16828  0.37479  0.84121  Biso   1.000  H 
  H91      1.0000 0.13724  0.29638  0.87768  Biso   1.000  H 
  H92      1.0000 0.07901  0.32469  0.89402  Biso   1.000  H 
  H93      1.0000 0.11455  0.29279  0.94045  Biso   1.000  H 
  H94      1.0000 0.21708  0.32920  0.90963  Biso   1.000  H 
  H95      1.0000 0.21983  0.39276  0.93055  Biso   1.000  H 
  O53      1.0000 0.07190  0.86740  0.00000  Biso   1.000  O 
  C96      1.0000 0.11720  0.88280  0.00000  Biso   1.000  C 
  O54      1.0000 0.13260  0.92810  0.00000  Biso   1.000  O 
  C97      1.0000 0.15650  0.84350  0.00000  Biso   1.000  C 
  C98      1.0000 0.14470  0.79420  0.00000  Biso   1.000  C 
  C99      1.0000 0.20580  0.85530  0.00000  Biso   1.000  C 
  C100     1.0000 0.17950  0.75800  0.00000  Biso   1.000  C 
  H96      1.0000 0.11140  0.78510  0.00000  Biso   1.000  H 
  C101     1.0000 0.24200  0.82050  0.00000  Biso   1.000  C 
  H97      1.0000 0.21490  0.88860  0.00000  Biso   1.000  H 
  C102     1.0000 0.23070  0.76930  0.00000  Biso   1.000  C 
  C103     1.0000 0.26930  0.73070  0.00000  Biso   1.000  C 
  H98      1.0000 0.16950  0.72490  0.00000  Biso   1.000  H 
  C104     1.0000 0.25800  0.67950  0.00000  Biso   1.000  C 
  H99      1.0000 0.27510  0.83050  0.00000  Biso   1.000  H 
  C105     1.0000 0.32050  0.74200  0.00000  Biso   1.000  C 
  C106     1.0000 0.29420  0.64470  0.00000  Biso   1.000  C 
  N6       1.0000 0.20537  0.65918  0.01308  Biso   1.000  N 
  C107     1.0000 0.35530  0.70580  0.00000  Biso   1.000  C 
  H100     1.0000 0.33050  0.77510  0.00000  Biso   1.000  H 
  C108     1.0000 0.34350  0.65650  0.00000  Biso   1.000  C 
  C109     1.0000 0.38280  0.61720  0.00000  Biso   1.000  C 
  H101     1.0000 0.28510  0.61140  0.00000  Biso   1.000  H 
  H102     1.0000 0.38860  0.71490  0.00000  Biso   1.000  H 
  O55      1.0000 0.36740  0.57190  0.00000  Biso   1.000  O 
  O56      1.0000 0.42810  0.63260  0.00000  Biso   1.000  O 
  H103     1.0000 0.19880  0.62910  0.98949  Biso   1.000  H 
  C110     1.0000 0.19951  0.64297  0.06536  Biso   1.000  C 
  C111     1.0000 0.14439  0.63379  0.08250  Biso   1.000  C 
  C112     1.0000 0.14526  0.60493  0.13135  Biso   1.000  C 
  C113     1.0000 0.11548  0.60400  0.04314  Biso   1.000  C 
  C114     1.0000 0.11748  0.68309  0.09290  Biso   1.000  C 
  H104     1.0000 0.13205  0.56602  0.03754  Biso   1.000  H 
  H105     1.0000 0.11663  0.62402  0.00773  Biso   1.000  H 
  H106     1.0000 0.07599  0.59865  0.05454  Biso   1.000  H 
  H107     1.0000 0.16149  0.56798  0.12501  Biso   1.000  H 
  H108     1.0000 0.10764  0.60067  0.14715  Biso   1.000  H 
  H109     1.0000 0.16828  0.62521  0.15879  Biso   1.000  H 
  H110     1.0000 0.13724  0.70362  0.12232  Biso   1.000  H 
  H111     1.0000 0.07901  0.67532  0.10598  Biso   1.000  H 
  H112     1.0000 0.11455  0.70721  0.05955  Biso   1.000  H 
  H113     1.0000 0.21708  0.67080  0.09038  Biso   1.000  H 
  H114     1.0000 0.21983  0.60724  0.06945  Biso   1.000  H 
  O57      1.0000 0.92810  0.86740  0.00000  Biso   1.000  O 
  C115     1.0000 0.88280  0.88280  0.00000  Biso   1.000  C 
  O58      1.0000 0.86740  0.92810  0.00000  Biso   1.000  O 
  C116     1.0000 0.84350  0.84350  0.00000  Biso   1.000  C 
  C117     1.0000 0.85530  0.79420  0.00000  Biso   1.000  C 
  C118     1.0000 0.79420  0.85530  0.00000  Biso   1.000  C 
  C119     1.0000 0.82050  0.75800  0.00000  Biso   1.000  C 
  H115     1.0000 0.88860  0.78510  0.00000  Biso   1.000  H 
  C120     1.0000 0.75800  0.82050  0.00000  Biso   1.000  C 
  H116     1.0000 0.78510  0.88860  0.00000  Biso   1.000  H 
  C121     1.0000 0.76930  0.76930  0.00000  Biso   1.000  C 
  C122     1.0000 0.73070  0.73070  0.00000  Biso   1.000  C 
  H117     1.0000 0.83050  0.72490  0.00000  Biso   1.000  H 
  C123     1.0000 0.74200  0.67950  0.00000  Biso   1.000  C 
  H118     1.0000 0.72490  0.83050  0.00000  Biso   1.000  H 
  C124     1.0000 0.67950  0.74200  0.00000  Biso   1.000  C 
  C125     1.0000 0.70580  0.64470  0.00000  Biso   1.000  C 
  N7       1.0000 0.79463  0.65918  0.98692  Biso   1.000  N 
  C126     1.0000 0.64470  0.70580  0.00000  Biso   1.000  C 
  H119     1.0000 0.66950  0.77510  0.00000  Biso   1.000  H 
  C127     1.0000 0.65650  0.65650  0.00000  Biso   1.000  C 
  C128     1.0000 0.61720  0.61720  0.00000  Biso   1.000  C 
  H120     1.0000 0.71490  0.61140  0.00000  Biso   1.000  H 
  H121     1.0000 0.61140  0.71490  0.00000  Biso   1.000  H 
  O59      1.0000 0.63260  0.57190  0.00000  Biso   1.000  O 
  O60      1.0000 0.57190  0.63260  0.00000  Biso   1.000  O 
  H122     1.0000 0.80120  0.62910  0.01051  Biso   1.000  H 
  C129     1.0000 0.80049  0.64297  0.93464  Biso   1.000  C 
  C130     1.0000 0.85561  0.63379  0.91750  Biso   1.000  C 
  C131     1.0000 0.85474  0.60493  0.86865  Biso   1.000  C 
  C132     1.0000 0.88452  0.60400  0.95686  Biso   1.000  C 
  C133     1.0000 0.88252  0.68309  0.90710  Biso   1.000  C 
  H123     1.0000 0.86795  0.56602  0.96246  Biso   1.000  H 
  H124     1.0000 0.88337  0.62402  0.99227  Biso   1.000  H 
  H125     1.0000 0.92401  0.59865  0.94546  Biso   1.000  H 
  H126     1.0000 0.83851  0.56798  0.87499  Biso   1.000  H 
  H127     1.0000 0.89236  0.60067  0.85285  Biso   1.000  H 
  H128     1.0000 0.83173  0.62521  0.84121  Biso   1.000  H 
  H129     1.0000 0.86276  0.70362  0.87768  Biso   1.000  H 
  H130     1.0000 0.92099  0.67532  0.89402  Biso   1.000  H 
  H131     1.0000 0.88545  0.70721  0.94045  Biso   1.000  H 
  H132     1.0000 0.78292  0.67080  0.90963  Biso   1.000  H 
  H133     1.0000 0.78017  0.60724  0.93055  Biso   1.000  H 
  O61      1.0000 0.92810  0.13260  0.00000  Biso   1.000  O 
  C134     1.0000 0.88280  0.11720  0.00000  Biso   1.000  C 
  O62      1.0000 0.86740  0.07190  0.00000  Biso   1.000  O 
  C135     1.0000 0.84350  0.15650  0.00000  Biso   1.000  C 
  C136     1.0000 0.85530  0.20580  0.00000  Biso   1.000  C 
  C137     1.0000 0.79420  0.14470  0.00000  Biso   1.000  C 
  C138     1.0000 0.82050  0.24200  0.00000  Biso   1.000  C 
  H134     1.0000 0.88860  0.21490  0.00000  Biso   1.000  H 
  C139     1.0000 0.75800  0.17950  0.00000  Biso   1.000  C 
  H135     1.0000 0.78510  0.11140  0.00000  Biso   1.000  H 
  C140     1.0000 0.76930  0.23070  0.00000  Biso   1.000  C 
  C141     1.0000 0.73070  0.26930  0.00000  Biso   1.000  C 
  H136     1.0000 0.83050  0.27510  0.00000  Biso   1.000  H 
  C142     1.0000 0.74200  0.32050  0.00000  Biso   1.000  C 
  H137     1.0000 0.72490  0.16950  0.00000  Biso   1.000  H 
  C143     1.0000 0.67950  0.25800  0.00000  Biso   1.000  C 
  C144     1.0000 0.70580  0.35530  0.00000  Biso   1.000  C 
  N8       1.0000 0.79463  0.34082  0.01308  Biso   1.000  N 
  C145     1.0000 0.64470  0.29420  0.00000  Biso   1.000  C 
  H138     1.0000 0.66950  0.22490  0.00000  Biso   1.000  H 
  C146     1.0000 0.65650  0.34350  0.00000  Biso   1.000  C 
  C147     1.0000 0.61720  0.38280  0.00000  Biso   1.000  C 
  H139     1.0000 0.71490  0.38860  0.00000  Biso   1.000  H 
  H140     1.0000 0.61140  0.28510  0.00000  Biso   1.000  H 
  O63      1.0000 0.63260  0.42810  0.00000  Biso   1.000  O 
  O64      1.0000 0.57190  0.36740  0.00000  Biso   1.000  O 
  H141     1.0000 0.80120  0.37090  0.98949  Biso   1.000  H 
  C148     1.0000 0.80049  0.35703  0.06536  Biso   1.000  C 
  C149     1.0000 0.85561  0.36621  0.08250  Biso   1.000  C 
  C150     1.0000 0.85474  0.39507  0.13135  Biso   1.000  C 
  C151     1.0000 0.88452  0.39600  0.04314  Biso   1.000  C 
  C152     1.0000 0.88252  0.31691  0.09290  Biso   1.000  C 
  H142     1.0000 0.86795  0.43398  0.03754  Biso   1.000  H 
  H143     1.0000 0.88337  0.37598  0.00773  Biso   1.000  H 
  H144     1.0000 0.92401  0.40135  0.05454  Biso   1.000  H 
  H145     1.0000 0.83851  0.43202  0.12501  Biso   1.000  H 
  H146     1.0000 0.89236  0.39933  0.14715  Biso   1.000  H 
  H147     1.0000 0.83173  0.37479  0.15879  Biso   1.000  H 
  H148     1.0000 0.86276  0.29638  0.12232  Biso   1.000  H 
  H149     1.0000 0.92099  0.32469  0.10598  Biso   1.000  H 
  H150     1.0000 0.88545  0.29279  0.05955  Biso   1.000  H 
  H151     1.0000 0.78292  0.32920  0.09038  Biso   1.000  H 
  H152     1.0000 0.78017  0.39276  0.06945  Biso   1.000  H 
  O65      1.0000 0.00000  0.07190  0.13260  Biso   1.000  O 
  C153     1.0000 0.00000  0.11720  0.11720  Biso   1.000  C 
  O66      1.0000 0.00000  0.13260  0.07190  Biso   1.000  O 
  C154     1.0000 0.00000  0.15650  0.15650  Biso   1.000  C 
  C155     1.0000 0.00000  0.14470  0.20580  Biso   1.000  C 
  C156     1.0000 0.00000  0.20580  0.14470  Biso   1.000  C 
  C157     1.0000 0.00000  0.17950  0.24200  Biso   1.000  C 
  H153     1.0000 0.00000  0.11140  0.21490  Biso   1.000  H 
  C158     1.0000 0.00000  0.24200  0.17950  Biso   1.000  C 
  H154     1.0000 0.00000  0.21490  0.11140  Biso   1.000  H 
  C159     1.0000 0.00000  0.23070  0.23070  Biso   1.000  C 
  C160     1.0000 0.00000  0.26930  0.26930  Biso   1.000  C 
  H155     1.0000 0.00000  0.16950  0.27510  Biso   1.000  H 
  C161     1.0000 0.00000  0.25800  0.32050  Biso   1.000  C 
  H156     1.0000 0.00000  0.27510  0.16950  Biso   1.000  H 
  C162     1.0000 0.00000  0.32050  0.25800  Biso   1.000  C 
  C163     1.0000 0.00000  0.29420  0.35530  Biso   1.000  C 
  N9       1.0000 0.02818  0.21123  0.33697  Biso   1.000  N 
  C164     1.0000 0.00000  0.35530  0.29420  Biso   1.000  C 
  H157     1.0000 0.00000  0.33050  0.22490  Biso   1.000  H 
  C165     1.0000 0.00000  0.34350  0.34350  Biso   1.000  C 
  C166     1.0000 0.00000  0.38280  0.38280  Biso   1.000  C 
  H158     1.0000 0.00000  0.28510  0.38860  Biso   1.000  H 
  H159     1.0000 0.00000  0.38860  0.28510  Biso   1.000  H 
  O67      1.0000 0.00000  0.36740  0.42810  Biso   1.000  O 
  O68      1.0000 0.00000  0.42810  0.36740  Biso   1.000  O 
  H160     1.0000 0.06387  0.22331  0.34770  Biso   1.000  H 
  C167     1.0000 0.00745  0.18080  0.37754  Biso   1.000  C 
  C168     1.0000 0.03381  0.12771  0.37971  Biso   1.000  C 
  C169     1.0000 0.01827  0.10351  0.42890  Biso   1.000  C 
  C170     1.0000 0.09112  0.12812  0.37826  Biso   1.000  C 
  C171     1.0000 0.01375  0.09251  0.33851  Biso   1.000  C 
  H161     1.0000 0.10780  0.15330  0.40662  Biso   1.000  H 
  H162     1.0000 0.10395  0.13874  0.34067  Biso   1.000  H 
  H163     1.0000 0.10730  0.09153  0.38673  Biso   1.000  H 
  H164     1.0000 0.03794  0.11924  0.46072  Biso   1.000  H 
  H165     1.0000 0.02818  0.06282  0.42715  Biso   1.000  H 
  H166     1.0000 0.97979  0.10593  0.43661  Biso   1.000  H 
  H167     1.0000 0.03063  0.10406  0.30353  Biso   1.000  H 
  H168     1.0000 0.97366  0.09640  0.33187  Biso   1.000  H 
  H169     1.0000 0.02516  0.05341  0.34648  Biso   1.000  H 
  H170     1.0000 0.96693  0.17681  0.37182  Biso   1.000  H 
  H171     1.0000 0.01375  0.19925  0.41508  Biso   1.000  H 
  O69      1.0000 0.00000  0.07190  0.86740  Biso   1.000  O 
  C172     1.0000 0.00000  0.11720  0.88280  Biso   1.000  C 
  O70      1.0000 0.00000  0.13260  0.92810  Biso   1.000  O 
  C173     1.0000 0.00000  0.15650  0.84350  Biso   1.000  C 
  C174     1.0000 0.00000  0.14470  0.79420  Biso   1.000  C 
  C175     1.0000 0.00000  0.20580  0.85530  Biso   1.000  C 
  C176     1.0000 0.00000  0.17950  0.75800  Biso   1.000  C 
  H172     1.0000 0.00000  0.11140  0.78510  Biso   1.000  H 
  C177     1.0000 0.00000  0.24200  0.82050  Biso   1.000  C 
  H173     1.0000 0.00000  0.21490  0.88860  Biso   1.000  H 
  C178     1.0000 0.00000  0.23070  0.76930  Biso   1.000  C 
  C179     1.0000 0.00000  0.26930  0.73070  Biso   1.000  C 
  H174     1.0000 0.00000  0.16950  0.72490  Biso   1.000  H 
  C180     1.0000 0.00000  0.25800  0.67950  Biso   1.000  C 
  H175     1.0000 0.00000  0.27510  0.83050  Biso   1.000  H 
  C181     1.0000 0.00000  0.32050  0.74200  Biso   1.000  C 
  C182     1.0000 0.00000  0.29420  0.64470  Biso   1.000  C 
  N10      1.0000 0.97182  0.21123  0.66303  Biso   1.000  N 
  C183     1.0000 0.00000  0.35530  0.70580  Biso   1.000  C 
  H176     1.0000 0.00000  0.33050  0.77510  Biso   1.000  H 
  C184     1.0000 0.00000  0.34350  0.65650  Biso   1.000  C 
  C185     1.0000 0.00000  0.38280  0.61720  Biso   1.000  C 
  H177     1.0000 0.00000  0.28510  0.61140  Biso   1.000  H 
  H178     1.0000 0.00000  0.38860  0.71490  Biso   1.000  H 
  O71      1.0000 0.00000  0.36740  0.57190  Biso   1.000  O 
  O72      1.0000 0.00000  0.42810  0.63260  Biso   1.000  O 
  H179     1.0000 0.93613  0.22331  0.65230  Biso   1.000  H 
  C186     1.0000 0.99255  0.18080  0.62246  Biso   1.000  C 
  C187     1.0000 0.96619  0.12771  0.62029  Biso   1.000  C 
  C188     1.0000 0.98173  0.10351  0.57110  Biso   1.000  C 
  C189     1.0000 0.90888  0.12812  0.62174  Biso   1.000  C 
  C190     1.0000 0.98625  0.09251  0.66149  Biso   1.000  C 
  H180     1.0000 0.89220  0.15330  0.59338  Biso   1.000  H 
  H181     1.0000 0.89606  0.13874  0.65933  Biso   1.000  H 
  H182     1.0000 0.89270  0.09153  0.61327  Biso   1.000  H 
  H183     1.0000 0.96206  0.11924  0.53928  Biso   1.000  H 
  H184     1.0000 0.97182  0.06282  0.57285  Biso   1.000  H 
  H185     1.0000 0.02021  0.10593  0.56339  Biso   1.000  H 
  H186     1.0000 0.96937  0.10406  0.69647  Biso   1.000  H 
  H187     1.0000 0.02634  0.09640  0.66813  Biso   1.000  H 
  H188     1.0000 0.97484  0.05341  0.65352  Biso   1.000  H 
  H189     1.0000 0.03307  0.17681  0.62818  Biso   1.000  H 
  H190     1.0000 0.98625  0.19925  0.58492  Biso   1.000  H 
  O73      1.0000 0.00000  0.92810  0.86740  Biso   1.000  O 
  C191     1.0000 0.00000  0.88280  0.88280  Biso   1.000  C 
  O74      1.0000 0.00000  0.86740  0.92810  Biso   1.000  O 
  C192     1.0000 0.00000  0.84350  0.84350  Biso   1.000  C 
  C193     1.0000 0.00000  0.85530  0.79420  Biso   1.000  C 
  C194     1.0000 0.00000  0.79420  0.85530  Biso   1.000  C 
  C195     1.0000 0.00000  0.82050  0.75800  Biso   1.000  C 
  H191     1.0000 0.00000  0.88860  0.78510  Biso   1.000  H 
  C196     1.0000 0.00000  0.75800  0.82050  Biso   1.000  C 
  H192     1.0000 0.00000  0.78510  0.88860  Biso   1.000  H 
  C197     1.0000 0.00000  0.76930  0.76930  Biso   1.000  C 
  C198     1.0000 0.00000  0.73070  0.73070  Biso   1.000  C 
  H193     1.0000 0.00000  0.83050  0.72490  Biso   1.000  H 
  C199     1.0000 0.00000  0.74200  0.67950  Biso   1.000  C 
  H194     1.0000 0.00000  0.72490  0.83050  Biso   1.000  H 
  C200     1.0000 0.00000  0.67950  0.74200  Biso   1.000  C 
  C201     1.0000 0.00000  0.70580  0.64470  Biso   1.000  C 
  N11      1.0000 0.02818  0.78877  0.66303  Biso   1.000  N 
  C202     1.0000 0.00000  0.64470  0.70580  Biso   1.000  C 
  H195     1.0000 0.00000  0.66950  0.77510  Biso   1.000  H 
  C203     1.0000 0.00000  0.65650  0.65650  Biso   1.000  C 
  C204     1.0000 0.00000  0.61720  0.61720  Biso   1.000  C 
  H196     1.0000 0.00000  0.71490  0.61140  Biso   1.000  H 
  H197     1.0000 0.00000  0.61140  0.71490  Biso   1.000  H 
  O75      1.0000 0.00000  0.63260  0.57190  Biso   1.000  O 
  O76      1.0000 0.00000  0.57190  0.63260  Biso   1.000  O 
  H198     1.0000 0.06387  0.77669  0.65230  Biso   1.000  H 
  C205     1.0000 0.00745  0.81920  0.62246  Biso   1.000  C 
  C206     1.0000 0.03381  0.87229  0.62029  Biso   1.000  C 
  C207     1.0000 0.01827  0.89649  0.57110  Biso   1.000  C 
  C208     1.0000 0.09112  0.87188  0.62174  Biso   1.000  C 
  C209     1.0000 0.01375  0.90749  0.66149  Biso   1.000  C 
  H199     1.0000 0.10780  0.84670  0.59338  Biso   1.000  H 
  H200     1.0000 0.10395  0.86126  0.65933  Biso   1.000  H 
  H201     1.0000 0.10730  0.90847  0.61327  Biso   1.000  H 
  H202     1.0000 0.03794  0.88076  0.53928  Biso   1.000  H 
  H203     1.0000 0.02818  0.93718  0.57285  Biso   1.000  H 
  H204     1.0000 0.97979  0.89407  0.56339  Biso   1.000  H 
  H205     1.0000 0.03063  0.89594  0.69647  Biso   1.000  H 
  H206     1.0000 0.97366  0.90360  0.66813  Biso   1.000  H 
  H207     1.0000 0.02516  0.94659  0.65352  Biso   1.000  H 
  H208     1.0000 0.96693  0.82319  0.62818  Biso   1.000  H 
  H209     1.0000 0.01375  0.80075  0.58492  Biso   1.000  H 
  O77      1.0000 0.00000  0.92810  0.13260  Biso   1.000  O 
  C210     1.0000 0.00000  0.88280  0.11720  Biso   1.000  C 
  O78      1.0000 0.00000  0.86740  0.07190  Biso   1.000  O 
  C211     1.0000 0.00000  0.84350  0.15650  Biso   1.000  C 
  C212     1.0000 0.00000  0.85530  0.20580  Biso   1.000  C 
  C213     1.0000 0.00000  0.79420  0.14470  Biso   1.000  C 
  C214     1.0000 0.00000  0.82050  0.24200  Biso   1.000  C 
  H210     1.0000 0.00000  0.88860  0.21490  Biso   1.000  H 
  C215     1.0000 0.00000  0.75800  0.17950  Biso   1.000  C 
  H211     1.0000 0.00000  0.78510  0.11140  Biso   1.000  H 
  C216     1.0000 0.00000  0.76930  0.23070  Biso   1.000  C 
  C217     1.0000 0.00000  0.73070  0.26930  Biso   1.000  C 
  H212     1.0000 0.00000  0.83050  0.27510  Biso   1.000  H 
  C218     1.0000 0.00000  0.74200  0.32050  Biso   1.000  C 
  H213     1.0000 0.00000  0.72490  0.16950  Biso   1.000  H 
  C219     1.0000 0.00000  0.67950  0.25800  Biso   1.000  C 
  C220     1.0000 0.00000  0.70580  0.35530  Biso   1.000  C 
  N12      1.0000 0.97182  0.78877  0.33697  Biso   1.000  N 
  C221     1.0000 0.00000  0.64470  0.29420  Biso   1.000  C 
  H214     1.0000 0.00000  0.66950  0.22490  Biso   1.000  H 
  C222     1.0000 0.00000  0.65650  0.34350  Biso   1.000  C 
  C223     1.0000 0.00000  0.61720  0.38280  Biso   1.000  C 
  H215     1.0000 0.00000  0.71490  0.38860  Biso   1.000  H 
  H216     1.0000 0.00000  0.61140  0.28510  Biso   1.000  H 
  O79      1.0000 0.00000  0.63260  0.42810  Biso   1.000  O 
  O80      1.0000 0.00000  0.57190  0.36740  Biso   1.000  O 
  H217     1.0000 0.93613  0.77669  0.34770  Biso   1.000  H 
  C224     1.0000 0.99255  0.81920  0.37754  Biso   1.000  C 
  C225     1.0000 0.96619  0.87229  0.37971  Biso   1.000  C 
  C226     1.0000 0.98173  0.89649  0.42890  Biso   1.000  C 
  C227     1.0000 0.90888  0.87188  0.37826  Biso   1.000  C 
  C228     1.0000 0.98625  0.90749  0.33851  Biso   1.000  C 
  H218     1.0000 0.89220  0.84670  0.40662  Biso   1.000  H 
  H219     1.0000 0.89606  0.86126  0.34067  Biso   1.000  H 
  H220     1.0000 0.89270  0.90847  0.38673  Biso   1.000  H 
  H221     1.0000 0.96206  0.88076  0.46072  Biso   1.000  H 
  H222     1.0000 0.97182  0.93718  0.42715  Biso   1.000  H 
  H223     1.0000 0.02021  0.89407  0.43661  Biso   1.000  H 
  H224     1.0000 0.96937  0.89594  0.30353  Biso   1.000  H 
  H225     1.0000 0.02634  0.90360  0.33187  Biso   1.000  H 
  H226     1.0000 0.97484  0.94659  0.34648  Biso   1.000  H 
  H227     1.0000 0.03307  0.82319  0.37182  Biso   1.000  H 
  H228     1.0000 0.98625  0.80075  0.41508  Biso   1.000  H 
  O81      1.0000 0.13260  0.50000  0.57190  Biso   1.000  O 
  C229     1.0000 0.11720  0.50000  0.61720  Biso   1.000  C 
  O82      1.0000 0.07190  0.50000  0.63260  Biso   1.000  O 
  C230     1.0000 0.15650  0.50000  0.65650  Biso   1.000  C 
  C231     1.0000 0.20580  0.50000  0.64470  Biso   1.000  C 
  C232     1.0000 0.14470  0.50000  0.70580  Biso   1.000  C 
  C233     1.0000 0.24200  0.50000  0.67950  Biso   1.000  C 
  H229     1.0000 0.21490  0.50000  0.61140  Biso   1.000  H 
  C234     1.0000 0.17950  0.50000  0.74200  Biso   1.000  C 
  H230     1.0000 0.11140  0.50000  0.71490  Biso   1.000  H 
  C235     1.0000 0.23070  0.50000  0.73070  Biso   1.000  C 
  C236     1.0000 0.26930  0.50000  0.76930  Biso   1.000  C 
  H231     1.0000 0.27510  0.50000  0.66950  Biso   1.000  H 
  C237     1.0000 0.32050  0.50000  0.75800  Biso   1.000  C 
  H232     1.0000 0.16950  0.50000  0.77510  Biso   1.000  H 
  C238     1.0000 0.25800  0.50000  0.82050  Biso   1.000  C 
  C239     1.0000 0.35530  0.50000  0.79420  Biso   1.000  C 
  N13      1.0000 0.34086  0.48709  0.70531  Biso   1.000  N 
  C240     1.0000 0.29420  0.50000  0.85530  Biso   1.000  C 
  H233     1.0000 0.22490  0.50000  0.83050  Biso   1.000  H 
  C241     1.0000 0.34350  0.50000  0.84350  Biso   1.000  C 
  C242     1.0000 0.38280  0.50000  0.88280  Biso   1.000  C 
  H234     1.0000 0.38860  0.50000  0.78510  Biso   1.000  H 
  H235     1.0000 0.28510  0.50000  0.88860  Biso   1.000  H 
  O83      1.0000 0.42810  0.50000  0.86740  Biso   1.000  O 
  O84      1.0000 0.36740  0.50000  0.92810  Biso   1.000  O 
  H236     1.0000 0.37143  0.51016  0.69914  Biso   1.000  H 
  C243     1.0000 0.35585  0.43452  0.69896  Biso   1.000  C 
  C244     1.0000 0.36648  0.41804  0.64389  Biso   1.000  C 
  C245     1.0000 0.39391  0.36844  0.64500  Biso   1.000  C 
  C246     1.0000 0.39848  0.45695  0.61693  Biso   1.000  C 
  C247     1.0000 0.31797  0.40943  0.61490  Biso   1.000  C 
  H237     1.0000 0.43558  0.46172  0.63569  Biso   1.000  H 
  H238     1.0000 0.37905  0.49271  0.61721  Biso   1.000  H 
  H239     1.0000 0.40581  0.44566  0.57773  Biso   1.000  H 
  H240     1.0000 0.43047  0.37352  0.66246  Biso   1.000  H 
  H241     1.0000 0.39890  0.35288  0.60736  Biso   1.000  H 
  H242     1.0000 0.37210  0.34139  0.66706  Biso   1.000  H 
  H243     1.0000 0.29558  0.38080  0.63380  Biso   1.000  H 
  H244     1.0000 0.32681  0.39609  0.57674  Biso   1.000  H 
  H245     1.0000 0.29529  0.44374  0.61109  Biso   1.000  H 
  H246     1.0000 0.32665  0.41006  0.71500  Biso   1.000  H 
  H247     1.0000 0.39063  0.42904  0.72055  Biso   1.000  H 
  O85      1.0000 0.86740  0.50000  0.57190  Biso   1.000  O 
  C248     1.0000 0.88280  0.50000  0.61720  Biso   1.000  C 
  O86      1.0000 0.92810  0.50000  0.63260  Biso   1.000  O 
  C249     1.0000 0.84350  0.50000  0.65650  Biso   1.000  C 
  C250     1.0000 0.79420  0.50000  0.64470  Biso   1.000  C 
  C251     1.0000 0.85530  0.50000  0.70580  Biso   1.000  C 
  C252     1.0000 0.75800  0.50000  0.67950  Biso   1.000  C 
  H248     1.0000 0.78510  0.50000  0.61140  Biso   1.000  H 
  C253     1.0000 0.82050  0.50000  0.74200  Biso   1.000  C 
  H249     1.0000 0.88860  0.50000  0.71490  Biso   1.000  H 
  C254     1.0000 0.76930  0.50000  0.73070  Biso   1.000  C 
  C255     1.0000 0.73070  0.50000  0.76930  Biso   1.000  C 
  H250     1.0000 0.72490  0.50000  0.66950  Biso   1.000  H 
  C256     1.0000 0.67950  0.50000  0.75800  Biso   1.000  C 
  H251     1.0000 0.83050  0.50000  0.77510  Biso   1.000  H 
  C257     1.0000 0.74200  0.50000  0.82050  Biso   1.000  C 
  C258     1.0000 0.64470  0.50000  0.79420  Biso   1.000  C 
  N14      1.0000 0.65914  0.51291  0.70531  Biso   1.000  N 
  C259     1.0000 0.70580  0.50000  0.85530  Biso   1.000  C 
  H252     1.0000 0.77510  0.50000  0.83050  Biso   1.000  H 
  C260     1.0000 0.65650  0.50000  0.84350  Biso   1.000  C 
  C261     1.0000 0.61720  0.50000  0.88280  Biso   1.000  C 
  H253     1.0000 0.61140  0.50000  0.78510  Biso   1.000  H 
  H254     1.0000 0.71490  0.50000  0.88860  Biso   1.000  H 
  O87      1.0000 0.57190  0.50000  0.86740  Biso   1.000  O 
  O88      1.0000 0.63260  0.50000  0.92810  Biso   1.000  O 
  H255     1.0000 0.62857  0.48984  0.69914  Biso   1.000  H 
  C262     1.0000 0.64415  0.56548  0.69896  Biso   1.000  C 
  C263     1.0000 0.63352  0.58196  0.64389  Biso   1.000  C 
  C264     1.0000 0.60609  0.63156  0.64500  Biso   1.000  C 
  C265     1.0000 0.60152  0.54305  0.61693  Biso   1.000  C 
  C266     1.0000 0.68203  0.59057  0.61490  Biso   1.000  C 
  H256     1.0000 0.56442  0.53828  0.63569  Biso   1.000  H 
  H257     1.0000 0.62095  0.50729  0.61721  Biso   1.000  H 
  H258     1.0000 0.59419  0.55434  0.57773  Biso   1.000  H 
  H259     1.0000 0.56953  0.62648  0.66246  Biso   1.000  H 
  H260     1.0000 0.60110  0.64712  0.60736  Biso   1.000  H 
  H261     1.0000 0.62790  0.65861  0.66706  Biso   1.000  H 
  H262     1.0000 0.70442  0.61920  0.63380  Biso   1.000  H 
  H263     1.0000 0.67319  0.60391  0.57674  Biso   1.000  H 
  H264     1.0000 0.70471  0.55626  0.61109  Biso   1.000  H 
  H265     1.0000 0.67335  0.58994  0.71500  Biso   1.000  H 
  H266     1.0000 0.60937  0.57096  0.72055  Biso   1.000  H 
  O89      1.0000 0.86740  0.50000  0.42810  Biso   1.000  O 
  C267     1.0000 0.88280  0.50000  0.38280  Biso   1.000  C 
  O90      1.0000 0.92810  0.50000  0.36740  Biso   1.000  O 
  C268     1.0000 0.84350  0.50000  0.34350  Biso   1.000  C 
  C269     1.0000 0.79420  0.50000  0.35530  Biso   1.000  C 
  C270     1.0000 0.85530  0.50000  0.29420  Biso   1.000  C 
  C271     1.0000 0.75800  0.50000  0.32050  Biso   1.000  C 
  H267     1.0000 0.78510  0.50000  0.38860  Biso   1.000  H 
  C272     1.0000 0.82050  0.50000  0.25800  Biso   1.000  C 
  H268     1.0000 0.88860  0.50000  0.28510  Biso   1.000  H 
  C273     1.0000 0.76930  0.50000  0.26930  Biso   1.000  C 
  C274     1.0000 0.73070  0.50000  0.23070  Biso   1.000  C 
  H269     1.0000 0.72490  0.50000  0.33050  Biso   1.000  H 
  C275     1.0000 0.67950  0.50000  0.24200  Biso   1.000  C 
  H270     1.0000 0.83050  0.50000  0.22490  Biso   1.000  H 
  C276     1.0000 0.74200  0.50000  0.17950  Biso   1.000  C 
  C277     1.0000 0.64470  0.50000  0.20580  Biso   1.000  C 
  N15      1.0000 0.65914  0.48709  0.29469  Biso   1.000  N 
  C278     1.0000 0.70580  0.50000  0.14470  Biso   1.000  C 
  H271     1.0000 0.77510  0.50000  0.16950  Biso   1.000  H 
  C279     1.0000 0.65650  0.50000  0.15650  Biso   1.000  C 
  C280     1.0000 0.61720  0.50000  0.11720  Biso   1.000  C 
  H272     1.0000 0.61140  0.50000  0.21490  Biso   1.000  H 
  H273     1.0000 0.71490  0.50000  0.11140  Biso   1.000  H 
  O91      1.0000 0.57190  0.50000  0.13260  Biso   1.000  O 
  O92      1.0000 0.63260  0.50000  0.07190  Biso   1.000  O 
  H274     1.0000 0.62857  0.51016  0.30086  Biso   1.000  H 
  C281     1.0000 0.64415  0.43452  0.30105  Biso   1.000  C 
  C282     1.0000 0.63352  0.41804  0.35611  Biso   1.000  C 
  C283     1.0000 0.60609  0.36844  0.35500  Biso   1.000  C 
  C284     1.0000 0.60152  0.45695  0.38307  Biso   1.000  C 
  C285     1.0000 0.68203  0.40943  0.38510  Biso   1.000  C 
  H275     1.0000 0.56442  0.46172  0.36431  Biso   1.000  H 
  H276     1.0000 0.62095  0.49271  0.38279  Biso   1.000  H 
  H277     1.0000 0.59419  0.44566  0.42227  Biso   1.000  H 
  H278     1.0000 0.56953  0.37352  0.33754  Biso   1.000  H 
  H279     1.0000 0.60110  0.35288  0.39264  Biso   1.000  H 
  H280     1.0000 0.62790  0.34139  0.33294  Biso   1.000  H 
  H281     1.0000 0.70442  0.38080  0.36620  Biso   1.000  H 
  H282     1.0000 0.67319  0.39609  0.42326  Biso   1.000  H 
  H283     1.0000 0.70471  0.44374  0.38891  Biso   1.000  H 
  H284     1.0000 0.67335  0.41006  0.28500  Biso   1.000  H 
  H285     1.0000 0.60937  0.42904  0.27944  Biso   1.000  H 
  O93      1.0000 0.13260  0.50000  0.42810  Biso   1.000  O 
  C286     1.0000 0.11720  0.50000  0.38280  Biso   1.000  C 
  O94      1.0000 0.07190  0.50000  0.36740  Biso   1.000  O 
  C287     1.0000 0.15650  0.50000  0.34350  Biso   1.000  C 
  C288     1.0000 0.20580  0.50000  0.35530  Biso   1.000  C 
  C289     1.0000 0.14470  0.50000  0.29420  Biso   1.000  C 
  C290     1.0000 0.24200  0.50000  0.32050  Biso   1.000  C 
  H286     1.0000 0.21490  0.50000  0.38860  Biso   1.000  H 
  C291     1.0000 0.17950  0.50000  0.25800  Biso   1.000  C 
  H287     1.0000 0.11140  0.50000  0.28510  Biso   1.000  H 
  C292     1.0000 0.23070  0.50000  0.26930  Biso   1.000  C 
  C293     1.0000 0.26930  0.50000  0.23070  Biso   1.000  C 
  H288     1.0000 0.27510  0.50000  0.33050  Biso   1.000  H 
  C294     1.0000 0.32050  0.50000  0.24200  Biso   1.000  C 
  H289     1.0000 0.16950  0.50000  0.22490  Biso   1.000  H 
  C295     1.0000 0.25800  0.50000  0.17950  Biso   1.000  C 
  C296     1.0000 0.35530  0.50000  0.20580  Biso   1.000  C 
  N16      1.0000 0.34086  0.51291  0.29469  Biso   1.000  N 
  C297     1.0000 0.29420  0.50000  0.14470  Biso   1.000  C 
  H290     1.0000 0.22490  0.50000  0.16950  Biso   1.000  H 
  C298     1.0000 0.34350  0.50000  0.15650  Biso   1.000  C 
  C299     1.0000 0.38280  0.50000  0.11720  Biso   1.000  C 
  H291     1.0000 0.38860  0.50000  0.21490  Biso   1.000  H 
  H292     1.0000 0.28510  0.50000  0.11140  Biso   1.000  H 
  O95      1.0000 0.42810  0.50000  0.13260  Biso   1.000  O 
  O96      1.0000 0.36740  0.50000  0.07190  Biso   1.000  O 
  H293     1.0000 0.37143  0.48984  0.30086  Biso   1.000  H 
  C300     1.0000 0.35585  0.56548  0.30105  Biso   1.000  C 
  C301     1.0000 0.36648  0.58196  0.35611  Biso   1.000  C 
  C302     1.0000 0.39391  0.63156  0.35500  Biso   1.000  C 
  C303     1.0000 0.39848  0.54305  0.38307  Biso   1.000  C 
  C304     1.0000 0.31797  0.59057  0.38510  Biso   1.000  C 
  H294     1.0000 0.43558  0.53828  0.36431  Biso   1.000  H 
  H295     1.0000 0.37905  0.50729  0.38279  Biso   1.000  H 
  H296     1.0000 0.40581  0.55434  0.42227  Biso   1.000  H 
  H297     1.0000 0.43047  0.62648  0.33754  Biso   1.000  H 
  H298     1.0000 0.39890  0.64712  0.39264  Biso   1.000  H 
  H299     1.0000 0.37210  0.65861  0.33294  Biso   1.000  H 
  H300     1.0000 0.29558  0.61920  0.36620  Biso   1.000  H 
  H301     1.0000 0.32681  0.60391  0.42326  Biso   1.000  H 
  H302     1.0000 0.29529  0.55626  0.38891  Biso   1.000  H 
  H303     1.0000 0.32665  0.58994  0.28500  Biso   1.000  H 
  H304     1.0000 0.39063  0.57096  0.27944  Biso   1.000  H 
  O97      1.0000 0.07190  0.63260  0.50000  Biso   1.000  O 
  C305     1.0000 0.11720  0.61720  0.50000  Biso   1.000  C 
  O98      1.0000 0.13260  0.57190  0.50000  Biso   1.000  O 
  C306     1.0000 0.15650  0.65650  0.50000  Biso   1.000  C 
  C307     1.0000 0.14470  0.70580  0.50000  Biso   1.000  C 
  C308     1.0000 0.20580  0.64470  0.50000  Biso   1.000  C 
  C309     1.0000 0.17950  0.74200  0.50000  Biso   1.000  C 
  H305     1.0000 0.11140  0.71490  0.50000  Biso   1.000  H 
  C310     1.0000 0.24200  0.67950  0.50000  Biso   1.000  C 
  H306     1.0000 0.21490  0.61140  0.50000  Biso   1.000  H 
  C311     1.0000 0.23070  0.73070  0.50000  Biso   1.000  C 
  C312     1.0000 0.26930  0.76930  0.50000  Biso   1.000  C 
  H307     1.0000 0.16950  0.77510  0.50000  Biso   1.000  H 
  C313     1.0000 0.25800  0.82050  0.50000  Biso   1.000  C 
  H308     1.0000 0.27510  0.66950  0.50000  Biso   1.000  H 
  C314     1.0000 0.32050  0.75800  0.50000  Biso   1.000  C 
  C315     1.0000 0.29420  0.85530  0.50000  Biso   1.000  C 
  N17      1.0000 0.20466  0.84241  0.50019  Biso   1.000  N 
  C316     1.0000 0.35530  0.79420  0.50000  Biso   1.000  C 
  H309     1.0000 0.33050  0.72490  0.50000  Biso   1.000  H 
  C317     1.0000 0.34350  0.84350  0.50000  Biso   1.000  C 
  C318     1.0000 0.38280  0.88280  0.50000  Biso   1.000  C 
  H310     1.0000 0.28510  0.88860  0.50000  Biso   1.000  H 
  H311     1.0000 0.38860  0.78510  0.50000  Biso   1.000  H 
  O99      1.0000 0.36740  0.92810  0.50000  Biso   1.000  O 
  O100     1.0000 0.42810  0.86740  0.50000  Biso   1.000  O 
  H312     1.0000 0.20466  0.87233  0.52577  Biso   1.000  H 
  C319     1.0000 0.19283  0.85820  0.44906  Biso   1.000  C 
  C320     1.0000 0.13701  0.87322  0.44303  Biso   1.000  C 
  C321     1.0000 0.13127  0.88964  0.38667  Biso   1.000  C 
  C322     1.0000 0.12585  0.91895  0.47854  Biso   1.000  C 
  C323     1.0000 0.10357  0.82899  0.45639  Biso   1.000  C 
  H313     1.0000 0.12993  0.90717  0.51800  Biso   1.000  H 
  H314     1.0000 0.08590  0.93066  0.47351  Biso   1.000  H 
  H315     1.0000 0.14913  0.95178  0.47038  Biso   1.000  H 
  H316     1.0000 0.15337  0.92296  0.37811  Biso   1.000  H 
  H317     1.0000 0.09288  0.90060  0.37955  Biso   1.000  H 
  H318     1.0000 0.14326  0.85832  0.36170  Biso   1.000  H 
  H319     1.0000 0.10554  0.82251  0.49762  Biso   1.000  H 
  H320     1.0000 0.11592  0.79465  0.43723  Biso   1.000  H 
  H321     1.0000 0.06514  0.83426  0.44664  Biso   1.000  H 
  H322     1.0000 0.20414  0.82818  0.42261  Biso   1.000  H 
  H323     1.0000 0.21446  0.89162  0.43823  Biso   1.000  H 
  O101     1.0000 0.07190  0.36740  0.50000  Biso   1.000  O 
  C324     1.0000 0.11720  0.38280  0.50000  Biso   1.000  C 
  O102     1.0000 0.13260  0.42810  0.50000  Biso   1.000  O 
  C325     1.0000 0.15650  0.34350  0.50000  Biso   1.000  C 
  C326     1.0000 0.14470  0.29420  0.50000  Biso   1.000  C 
  C327     1.0000 0.20580  0.35530  0.50000  Biso   1.000  C 
  C328     1.0000 0.17950  0.25800  0.50000  Biso   1.000  C 
  H324     1.0000 0.11140  0.28510  0.50000  Biso   1.000  H 
  C329     1.0000 0.24200  0.32050  0.50000  Biso   1.000  C 
  H325     1.0000 0.21490  0.38860  0.50000  Biso   1.000  H 
  C330     1.0000 0.23070  0.26930  0.50000  Biso   1.000  C 
  C331     1.0000 0.26930  0.23070  0.50000  Biso   1.000  C 
  H326     1.0000 0.16950  0.22490  0.50000  Biso   1.000  H 
  C332     1.0000 0.25800  0.17950  0.50000  Biso   1.000  C 
  H327     1.0000 0.27510  0.33050  0.50000  Biso   1.000  H 
  C333     1.0000 0.32050  0.24200  0.50000  Biso   1.000  C 
  C334     1.0000 0.29420  0.14470  0.50000  Biso   1.000  C 
  N18      1.0000 0.20466  0.15759  0.49981  Biso   1.000  N 
  C335     1.0000 0.35530  0.20580  0.50000  Biso   1.000  C 
  H328     1.0000 0.33050  0.27510  0.50000  Biso   1.000  H 
  C336     1.0000 0.34350  0.15650  0.50000  Biso   1.000  C 
  C337     1.0000 0.38280  0.11720  0.50000  Biso   1.000  C 
  H329     1.0000 0.28510  0.11140  0.50000  Biso   1.000  H 
  H330     1.0000 0.38860  0.21490  0.50000  Biso   1.000  H 
  O103     1.0000 0.36740  0.07190  0.50000  Biso   1.000  O 
  O104     1.0000 0.42810  0.13260  0.50000  Biso   1.000  O 
  H331     1.0000 0.20466  0.12767  0.47423  Biso   1.000  H 
  C338     1.0000 0.19283  0.14180  0.55094  Biso   1.000  C 
  C339     1.0000 0.13701  0.12678  0.55697  Biso   1.000  C 
  C340     1.0000 0.13127  0.11036  0.61333  Biso   1.000  C 
  C341     1.0000 0.12585  0.08105  0.52146  Biso   1.000  C 
  C342     1.0000 0.10357  0.17101  0.54361  Biso   1.000  C 
  H332     1.0000 0.12993  0.09283  0.48200  Biso   1.000  H 
  H333     1.0000 0.08590  0.06934  0.52649  Biso   1.000  H 
  H334     1.0000 0.14913  0.04822  0.52962  Biso   1.000  H 
  H335     1.0000 0.15337  0.07704  0.62189  Biso   1.000  H 
  H336     1.0000 0.09288  0.09940  0.62045  Biso   1.000  H 
  H337     1.0000 0.14326  0.14167  0.63830  Biso   1.000  H 
  H338     1.0000 0.10554  0.17749  0.50238  Biso   1.000  H 
  H339     1.0000 0.11592  0.20535  0.56277  Biso   1.000  H 
  H340     1.0000 0.06514  0.16574  0.55336  Biso   1.000  H 
  H341     1.0000 0.20414  0.17182  0.57739  Biso   1.000  H 
  H342     1.0000 0.21446  0.10838  0.56177  Biso   1.000  H 
  O105     1.0000 0.92810  0.36740  0.50000  Biso   1.000  O 
  C343     1.0000 0.88280  0.38280  0.50000  Biso   1.000  C 
  O106     1.0000 0.86740  0.42810  0.50000  Biso   1.000  O 
  C344     1.0000 0.84350  0.34350  0.50000  Biso   1.000  C 
  C345     1.0000 0.85530  0.29420  0.50000  Biso   1.000  C 
  C346     1.0000 0.79420  0.35530  0.50000  Biso   1.000  C 
  C347     1.0000 0.82050  0.25800  0.50000  Biso   1.000  C 
  H343     1.0000 0.88860  0.28510  0.50000  Biso   1.000  H 
  C348     1.0000 0.75800  0.32050  0.50000  Biso   1.000  C 
  H344     1.0000 0.78510  0.38860  0.50000  Biso   1.000  H 
  C349     1.0000 0.76930  0.26930  0.50000  Biso   1.000  C 
  C350     1.0000 0.73070  0.23070  0.50000  Biso   1.000  C 
  H345     1.0000 0.83050  0.22490  0.50000  Biso   1.000  H 
  C351     1.0000 0.74200  0.17950  0.50000  Biso   1.000  C 
  H346     1.0000 0.72490  0.33050  0.50000  Biso   1.000  H 
  C352     1.0000 0.67950  0.24200  0.50000  Biso   1.000  C 
  C353     1.0000 0.70580  0.14470  0.50000  Biso   1.000  C 
  N19      1.0000 0.79535  0.15759  0.50019  Biso   1.000  N 
  C354     1.0000 0.64470  0.20580  0.50000  Biso   1.000  C 
  H347     1.0000 0.66950  0.27510  0.50000  Biso   1.000  H 
  C355     1.0000 0.65650  0.15650  0.50000  Biso   1.000  C 
  C356     1.0000 0.61720  0.11720  0.50000  Biso   1.000  C 
  H348     1.0000 0.71490  0.11140  0.50000  Biso   1.000  H 
  H349     1.0000 0.61140  0.21490  0.50000  Biso   1.000  H 
  O107     1.0000 0.63260  0.07190  0.50000  Biso   1.000  O 
  O108     1.0000 0.57190  0.13260  0.50000  Biso   1.000  O 
  H350     1.0000 0.79534  0.12767  0.52577  Biso   1.000  H 
  C357     1.0000 0.80716  0.14180  0.44906  Biso   1.000  C 
  C358     1.0000 0.86299  0.12678  0.44303  Biso   1.000  C 
  C359     1.0000 0.86873  0.11036  0.38667  Biso   1.000  C 
  C360     1.0000 0.87415  0.08105  0.47854  Biso   1.000  C 
  C361     1.0000 0.89643  0.17101  0.45639  Biso   1.000  C 
  H351     1.0000 0.87007  0.09283  0.51800  Biso   1.000  H 
  H352     1.0000 0.91410  0.06934  0.47351  Biso   1.000  H 
  H353     1.0000 0.85087  0.04822  0.47038  Biso   1.000  H 
  H354     1.0000 0.84663  0.07704  0.37811  Biso   1.000  H 
  H355     1.0000 0.90712  0.09940  0.37955  Biso   1.000  H 
  H356     1.0000 0.85674  0.14167  0.36170  Biso   1.000  H 
  H357     1.0000 0.89446  0.17749  0.49762  Biso   1.000  H 
  H358     1.0000 0.88408  0.20535  0.43723  Biso   1.000  H 
  H359     1.0000 0.93486  0.16574  0.44664  Biso   1.000  H 
  H360     1.0000 0.79587  0.17182  0.42261  Biso   1.000  H 
  H361     1.0000 0.78554  0.10838  0.43823  Biso   1.000  H 
  O109     1.0000 0.92810  0.63260  0.50000  Biso   1.000  O 
  C362     1.0000 0.88280  0.61720  0.50000  Biso   1.000  C 
  O110     1.0000 0.86740  0.57190  0.50000  Biso   1.000  O 
  C363     1.0000 0.84350  0.65650  0.50000  Biso   1.000  C 
  C364     1.0000 0.85530  0.70580  0.50000  Biso   1.000  C 
  C365     1.0000 0.79420  0.64470  0.50000  Biso   1.000  C 
  C366     1.0000 0.82050  0.74200  0.50000  Biso   1.000  C 
  H362     1.0000 0.88860  0.71490  0.50000  Biso   1.000  H 
  C367     1.0000 0.75800  0.67950  0.50000  Biso   1.000  C 
  H363     1.0000 0.78510  0.61140  0.50000  Biso   1.000  H 
  C368     1.0000 0.76930  0.73070  0.50000  Biso   1.000  C 
  C369     1.0000 0.73070  0.76930  0.50000  Biso   1.000  C 
  H364     1.0000 0.83050  0.77510  0.50000  Biso   1.000  H 
  C370     1.0000 0.74200  0.82050  0.50000  Biso   1.000  C 
  H365     1.0000 0.72490  0.66950  0.50000  Biso   1.000  H 
  C371     1.0000 0.67950  0.75800  0.50000  Biso   1.000  C 
  C372     1.0000 0.70580  0.85530  0.50000  Biso   1.000  C 
  N20      1.0000 0.79535  0.84241  0.49981  Biso   1.000  N 
  C373     1.0000 0.64470  0.79420  0.50000  Biso   1.000  C 
  H366     1.0000 0.66950  0.72490  0.50000  Biso   1.000  H 
  C374     1.0000 0.65650  0.84350  0.50000  Biso   1.000  C 
  C375     1.0000 0.61720  0.88280  0.50000  Biso   1.000  C 
  H367     1.0000 0.71490  0.88860  0.50000  Biso   1.000  H 
  H368     1.0000 0.61140  0.78510  0.50000  Biso   1.000  H 
  O111     1.0000 0.63260  0.92810  0.50000  Biso   1.000  O 
  O112     1.0000 0.57190  0.86740  0.50000  Biso   1.000  O 
  H369     1.0000 0.79534  0.87233  0.47423  Biso   1.000  H 
  C376     1.0000 0.80716  0.85820  0.55094  Biso   1.000  C 
  C377     1.0000 0.86299  0.87322  0.55697  Biso   1.000  C 
  C378     1.0000 0.86873  0.88964  0.61333  Biso   1.000  C 
  C379     1.0000 0.87415  0.91895  0.52146  Biso   1.000  C 
  C380     1.0000 0.89643  0.82899  0.54361  Biso   1.000  C 
  H370     1.0000 0.87007  0.90717  0.48200  Biso   1.000  H 
  H371     1.0000 0.91410  0.93066  0.52649  Biso   1.000  H 
  H372     1.0000 0.85087  0.95178  0.52962  Biso   1.000  H 
  H373     1.0000 0.84663  0.92296  0.62189  Biso   1.000  H 
  H374     1.0000 0.90712  0.90060  0.62045  Biso   1.000  H 
  H375     1.0000 0.85674  0.85832  0.63830  Biso   1.000  H 
  H376     1.0000 0.89446  0.82251  0.50238  Biso   1.000  H 
  H377     1.0000 0.88408  0.79465  0.56277  Biso   1.000  H 
  H378     1.0000 0.93486  0.83426  0.55336  Biso   1.000  H 
  H379     1.0000 0.79587  0.82818  0.57739  Biso   1.000  H 
  H380     1.0000 0.78554  0.89162  0.56177  Biso   1.000  H 
  O113     1.0000 0.50000  0.07190  0.63260  Biso   1.000  O 
  C381     1.0000 0.50000  0.11720  0.61720  Biso   1.000  C 
  O114     1.0000 0.50000  0.13260  0.57190  Biso   1.000  O 
  C382     1.0000 0.50000  0.15650  0.65650  Biso   1.000  C 
  C383     1.0000 0.50000  0.14470  0.70580  Biso   1.000  C 
  C384     1.0000 0.50000  0.20580  0.64470  Biso   1.000  C 
  C385     1.0000 0.50000  0.17950  0.74200  Biso   1.000  C 
  H381     1.0000 0.50000  0.11140  0.71490  Biso   1.000  H 
  C386     1.0000 0.50000  0.24200  0.67950  Biso   1.000  C 
  H382     1.0000 0.50000  0.21490  0.61140  Biso   1.000  H 
  C387     1.0000 0.50000  0.23070  0.73070  Biso   1.000  C 
  C388     1.0000 0.50000  0.26930  0.76930  Biso   1.000  C 
  H383     1.0000 0.50000  0.16950  0.77510  Biso   1.000  H 
  C389     1.0000 0.50000  0.25800  0.82050  Biso   1.000  C 
  H384     1.0000 0.50000  0.27510  0.66950  Biso   1.000  H 
  C390     1.0000 0.50000  0.32050  0.75800  Biso   1.000  C 
  C391     1.0000 0.50000  0.29420  0.85530  Biso   1.000  C 
  N21      1.0000 0.50052  0.20462  0.84272  Biso   1.000  N 
  C392     1.0000 0.50000  0.35530  0.79420  Biso   1.000  C 
  H385     1.0000 0.50000  0.33050  0.72490  Biso   1.000  H 
  C393     1.0000 0.50000  0.34350  0.84350  Biso   1.000  C 
  C394     1.0000 0.50000  0.38280  0.88280  Biso   1.000  C 
  H386     1.0000 0.50000  0.28510  0.88860  Biso   1.000  H 
  H387     1.0000 0.50000  0.38860  0.78510  Biso   1.000  H 
  O115     1.0000 0.50000  0.36740  0.92810  Biso   1.000  O 
  O116     1.0000 0.50000  0.42810  0.86740  Biso   1.000  O 
  H388     1.0000 0.52689  0.20409  0.87185  Biso   1.000  H 
  C395     1.0000 0.44964  0.19303  0.86013  Biso   1.000  C 
  C396     1.0000 0.44285  0.13669  0.87395  Biso   1.000  C 
  C397     1.0000 0.38615  0.13147  0.89098  Biso   1.000  C 
  C398     1.0000 0.47994  0.12381  0.91804  Biso   1.000  C 
  C399     1.0000 0.45477  0.10444  0.82904  Biso   1.000  C 
  H389     1.0000 0.51842  0.12582  0.90376  Biso   1.000  H 
  H390     1.0000 0.47282  0.08480  0.93208  Biso   1.000  H 
  H391     1.0000 0.47530  0.14891  0.95025  Biso   1.000  H 
  H392     1.0000 0.37948  0.15081  0.92622  Biso   1.000  H 
  H393     1.0000 0.37670  0.09272  0.89804  Biso   1.000  H 
  H394     1.0000 0.36103  0.14740  0.86150  Biso   1.000  H 
  H395     1.0000 0.49566  0.10594  0.82040  Biso   1.000  H 
  H396     1.0000 0.43422  0.11712  0.79559  Biso   1.000  H 
  H397     1.0000 0.44490  0.06609  0.83503  Biso   1.000  H 
  H398     1.0000 0.42299  0.20522  0.83060  Biso   1.000  H 
  H399     1.0000 0.43977  0.21424  0.89419  Biso   1.000  H 
  O117     1.0000 0.50000  0.07190  0.36740  Biso   1.000  O 
  C400     1.0000 0.50000  0.11720  0.38280  Biso   1.000  C 
  O118     1.0000 0.50000  0.13260  0.42810  Biso   1.000  O 
  C401     1.0000 0.50000  0.15650  0.34350  Biso   1.000  C 
  C402     1.0000 0.50000  0.14470  0.29420  Biso   1.000  C 
  C403     1.0000 0.50000  0.20580  0.35530  Biso   1.000  C 
  C404     1.0000 0.50000  0.17950  0.25800  Biso   1.000  C 
  H400     1.0000 0.50000  0.11140  0.28510  Biso   1.000  H 
  C405     1.0000 0.50000  0.24200  0.32050  Biso   1.000  C 
  H401     1.0000 0.50000  0.21490  0.38860  Biso   1.000  H 
  C406     1.0000 0.50000  0.23070  0.26930  Biso   1.000  C 
  C407     1.0000 0.50000  0.26930  0.23070  Biso   1.000  C 
  H402     1.0000 0.50000  0.16950  0.22490  Biso   1.000  H 
  C408     1.0000 0.50000  0.25800  0.17950  Biso   1.000  C 
  H403     1.0000 0.50000  0.27510  0.33050  Biso   1.000  H 
  C409     1.0000 0.50000  0.32050  0.24200  Biso   1.000  C 
  C410     1.0000 0.50000  0.29420  0.14470  Biso   1.000  C 
  N22      1.0000 0.49948  0.20462  0.15728  Biso   1.000  N 
  C411     1.0000 0.50000  0.35530  0.20580  Biso   1.000  C 
  H404     1.0000 0.50000  0.33050  0.27510  Biso   1.000  H 
  C412     1.0000 0.50000  0.34350  0.15650  Biso   1.000  C 
  C413     1.0000 0.50000  0.38280  0.11720  Biso   1.000  C 
  H405     1.0000 0.50000  0.28510  0.11140  Biso   1.000  H 
  H406     1.0000 0.50000  0.38860  0.21490  Biso   1.000  H 
  O119     1.0000 0.50000  0.36740  0.07190  Biso   1.000  O 
  O120     1.0000 0.50000  0.42810  0.13260  Biso   1.000  O 
  H407     1.0000 0.47311  0.20409  0.12815  Biso   1.000  H 
  C414     1.0000 0.55036  0.19303  0.13987  Biso   1.000  C 
  C415     1.0000 0.55715  0.13669  0.12605  Biso   1.000  C 
  C416     1.0000 0.61385  0.13147  0.10902  Biso   1.000  C 
  C417     1.0000 0.52006  0.12381  0.08196  Biso   1.000  C 
  C418     1.0000 0.54523  0.10444  0.17096  Biso   1.000  C 
  H408     1.0000 0.48158  0.12582  0.09624  Biso   1.000  H 
  H409     1.0000 0.52718  0.08480  0.06792  Biso   1.000  H 
  H410     1.0000 0.52470  0.14891  0.04975  Biso   1.000  H 
  H411     1.0000 0.62052  0.15081  0.07378  Biso   1.000  H 
  H412     1.0000 0.62330  0.09272  0.10196  Biso   1.000  H 
  H413     1.0000 0.63896  0.14740  0.13850  Biso   1.000  H 
  H414     1.0000 0.50434  0.10594  0.17960  Biso   1.000  H 
  H415     1.0000 0.56578  0.11712  0.20441  Biso   1.000  H 
  H416     1.0000 0.55510  0.06609  0.16497  Biso   1.000  H 
  H417     1.0000 0.57701  0.20522  0.16940  Biso   1.000  H 
  H418     1.0000 0.56023  0.21424  0.10582  Biso   1.000  H 
  O121     1.0000 0.50000  0.92810  0.36740  Biso   1.000  O 
  C419     1.0000 0.50000  0.88280  0.38280  Biso   1.000  C 
  O122     1.0000 0.50000  0.86740  0.42810  Biso   1.000  O 
  C420     1.0000 0.50000  0.84350  0.34350  Biso   1.000  C 
  C421     1.0000 0.50000  0.85530  0.29420  Biso   1.000  C 
  C422     1.0000 0.50000  0.79420  0.35530  Biso   1.000  C 
  C423     1.0000 0.50000  0.82050  0.25800  Biso   1.000  C 
  H419     1.0000 0.50000  0.88860  0.28510  Biso   1.000  H 
  C424     1.0000 0.50000  0.75800  0.32050  Biso   1.000  C 
  H420     1.0000 0.50000  0.78510  0.38860  Biso   1.000  H 
  C425     1.0000 0.50000  0.76930  0.26930  Biso   1.000  C 
  C426     1.0000 0.50000  0.73070  0.23070  Biso   1.000  C 
  H421     1.0000 0.50000  0.83050  0.22490  Biso   1.000  H 
  C427     1.0000 0.50000  0.74200  0.17950  Biso   1.000  C 
  H422     1.0000 0.50000  0.72490  0.33050  Biso   1.000  H 
  C428     1.0000 0.50000  0.67950  0.24200  Biso   1.000  C 
  C429     1.0000 0.50000  0.70580  0.14470  Biso   1.000  C 
  N23      1.0000 0.50052  0.79539  0.15728  Biso   1.000  N 
  C430     1.0000 0.50000  0.64470  0.20580  Biso   1.000  C 
  H423     1.0000 0.50000  0.66950  0.27510  Biso   1.000  H 
  C431     1.0000 0.50000  0.65650  0.15650  Biso   1.000  C 
  C432     1.0000 0.50000  0.61720  0.11720  Biso   1.000  C 
  H424     1.0000 0.50000  0.71490  0.11140  Biso   1.000  H 
  H425     1.0000 0.50000  0.61140  0.21490  Biso   1.000  H 
  O123     1.0000 0.50000  0.63260  0.07190  Biso   1.000  O 
  O124     1.0000 0.50000  0.57190  0.13260  Biso   1.000  O 
  H426     1.0000 0.52689  0.79591  0.12815  Biso   1.000  H 
  C433     1.0000 0.44964  0.80697  0.13987  Biso   1.000  C 
  C434     1.0000 0.44285  0.86331  0.12605  Biso   1.000  C 
  C435     1.0000 0.38615  0.86853  0.10902  Biso   1.000  C 
  C436     1.0000 0.47994  0.87619  0.08196  Biso   1.000  C 
  C437     1.0000 0.45477  0.89556  0.17096  Biso   1.000  C 
  H427     1.0000 0.51842  0.87418  0.09624  Biso   1.000  H 
  H428     1.0000 0.47282  0.91520  0.06792  Biso   1.000  H 
  H429     1.0000 0.47530  0.85110  0.04975  Biso   1.000  H 
  H430     1.0000 0.37948  0.84919  0.07378  Biso   1.000  H 
  H431     1.0000 0.37670  0.90728  0.10196  Biso   1.000  H 
  H432     1.0000 0.36103  0.85261  0.13850  Biso   1.000  H 
  H433     1.0000 0.49566  0.89406  0.17960  Biso   1.000  H 
  H434     1.0000 0.43422  0.88287  0.20441  Biso   1.000  H 
  H435     1.0000 0.44490  0.93390  0.16497  Biso   1.000  H 
  H436     1.0000 0.42299  0.79478  0.16940  Biso   1.000  H 
  H437     1.0000 0.43977  0.78576  0.10582  Biso   1.000  H 
  O125     1.0000 0.50000  0.92810  0.63260  Biso   1.000  O 
  C438     1.0000 0.50000  0.88280  0.61720  Biso   1.000  C 
  O126     1.0000 0.50000  0.86740  0.57190  Biso   1.000  O 
  C439     1.0000 0.50000  0.84350  0.65650  Biso   1.000  C 
  C440     1.0000 0.50000  0.85530  0.70580  Biso   1.000  C 
  C441     1.0000 0.50000  0.79420  0.64470  Biso   1.000  C 
  C442     1.0000 0.50000  0.82050  0.74200  Biso   1.000  C 
  H438     1.0000 0.50000  0.88860  0.71490  Biso   1.000  H 
  C443     1.0000 0.50000  0.75800  0.67950  Biso   1.000  C 
  H439     1.0000 0.50000  0.78510  0.61140  Biso   1.000  H 
  C444     1.0000 0.50000  0.76930  0.73070  Biso   1.000  C 
  C445     1.0000 0.50000  0.73070  0.76930  Biso   1.000  C 
  H440     1.0000 0.50000  0.83050  0.77510  Biso   1.000  H 
  C446     1.0000 0.50000  0.74200  0.82050  Biso   1.000  C 
  H441     1.0000 0.50000  0.72490  0.66950  Biso   1.000  H 
  C447     1.0000 0.50000  0.67950  0.75800  Biso   1.000  C 
  C448     1.0000 0.50000  0.70580  0.85530  Biso   1.000  C 
  N24      1.0000 0.49948  0.79539  0.84272  Biso   1.000  N 
  C449     1.0000 0.50000  0.64470  0.79420  Biso   1.000  C 
  H442     1.0000 0.50000  0.66950  0.72490  Biso   1.000  H 
  C450     1.0000 0.50000  0.65650  0.84350  Biso   1.000  C 
  C451     1.0000 0.50000  0.61720  0.88280  Biso   1.000  C 
  H443     1.0000 0.50000  0.71490  0.88860  Biso   1.000  H 
  H444     1.0000 0.50000  0.61140  0.78510  Biso   1.000  H 
  O127     1.0000 0.50000  0.63260  0.92810  Biso   1.000  O 
  O128     1.0000 0.50000  0.57190  0.86740  Biso   1.000  O 
  H445     1.0000 0.47311  0.79591  0.87185  Biso   1.000  H 
  C452     1.0000 0.55036  0.80697  0.86013  Biso   1.000  C 
  C453     1.0000 0.55715  0.86331  0.87395  Biso   1.000  C 
  C454     1.0000 0.61385  0.86853  0.89098  Biso   1.000  C 
  C455     1.0000 0.52006  0.87619  0.91804  Biso   1.000  C 
  C456     1.0000 0.54523  0.89556  0.82904  Biso   1.000  C 
  H446     1.0000 0.48158  0.87418  0.90376  Biso   1.000  H 
  H447     1.0000 0.52718  0.91520  0.93208  Biso   1.000  H 
  H448     1.0000 0.52470  0.85110  0.95025  Biso   1.000  H 
  H449     1.0000 0.62052  0.84919  0.92622  Biso   1.000  H 
  H450     1.0000 0.62330  0.90728  0.89804  Biso   1.000  H 
  H451     1.0000 0.63896  0.85261  0.86150  Biso   1.000  H 
  H452     1.0000 0.50434  0.89406  0.82040  Biso   1.000  H 
  H453     1.0000 0.56578  0.88287  0.79559  Biso   1.000  H 
  H454     1.0000 0.55510  0.93390  0.83503  Biso   1.000  H 
  H455     1.0000 0.57701  0.79478  0.83060  Biso   1.000  H 
  H456     1.0000 0.56023  0.78576  0.89419  Biso   1.000  H 
