data_image0
_cell_length_a       26.896
_cell_length_b       26.896
_cell_length_c       26.896
_cell_angle_alpha    90
_cell_angle_beta     90
_cell_angle_gamma    90

_symmetry_space_group_name_H-M    "P 1"
_symmetry_int_tables_number       1

loop_
  _symmetry_equiv_pos_as_xyz
  'x, y, z'

loop_
  _atom_site_label
  _atom_site_occupancy
  _atom_site_fract_x
  _atom_site_fract_y
  _atom_site_fract_z
  _atom_site_thermal_displace_type
  _atom_site_B_iso_or_equiv
  _atom_site_type_symbol
  Zr1      1.0000 0.09204  0.00000  0.00000  Biso   1.000  Zr
  Zr2      1.0000 0.90796  0.00000  0.00000  Biso   1.000  Zr
  Zr3      1.0000 0.00000  0.09204  0.00000  Biso   1.000  Zr
  Zr4      1.0000 0.00000  0.90796  0.00000  Biso   1.000  Zr
  Zr5      1.0000 0.00000  0.00000  0.09204  Biso   1.000  Zr
  Zr6      1.0000 0.00000  0.00000  0.90796  Biso   1.000  Zr
  Zr7      1.0000 0.09204  0.50000  0.50000  Biso   1.000  Zr
  Zr8      1.0000 0.90796  0.50000  0.50000  Biso   1.000  Zr
  Zr9      1.0000 0.00000  0.59204  0.50000  Biso   1.000  Zr
  Zr10     1.0000 0.00000  0.40796  0.50000  Biso   1.000  Zr
  Zr11     1.0000 0.00000  0.50000  0.59204  Biso   1.000  Zr
  Zr12     1.0000 0.00000  0.50000  0.40796  Biso   1.000  Zr
  Zr13     1.0000 0.59204  0.00000  0.50000  Biso   1.000  Zr
  Zr14     1.0000 0.40796  0.00000  0.50000  Biso   1.000  Zr
  Zr15     1.0000 0.50000  0.09204  0.50000  Biso   1.000  Zr
  Zr16     1.0000 0.50000  0.90796  0.50000  Biso   1.000  Zr
  Zr17     1.0000 0.50000  0.00000  0.59204  Biso   1.000  Zr
  Zr18     1.0000 0.50000  0.00000  0.40796  Biso   1.000  Zr
  Zr19     1.0000 0.59204  0.50000  0.00000  Biso   1.000  Zr
  Zr20     1.0000 0.40796  0.50000  0.00000  Biso   1.000  Zr
  Zr21     1.0000 0.50000  0.59204  0.00000  Biso   1.000  Zr
  Zr22     1.0000 0.50000  0.40796  0.00000  Biso   1.000  Zr
  Zr23     1.0000 0.50000  0.50000  0.09204  Biso   1.000  Zr
  Zr24     1.0000 0.50000  0.50000  0.90796  Biso   1.000  Zr
  O1       1.0000 0.04540  0.04540  0.04540  Biso   1.000  O 
  O2       1.0000 0.95460  0.95460  0.04540  Biso   1.000  O 
  O3       1.0000 0.95460  0.04540  0.95460  Biso   1.000  O 
  O4       1.0000 0.04540  0.95460  0.95460  Biso   1.000  O 
  O5       1.0000 0.04540  0.04540  0.95460  Biso   1.000  O 
  O6       1.0000 0.95460  0.95460  0.95460  Biso   1.000  O 
  O7       1.0000 0.04540  0.95460  0.04540  Biso   1.000  O 
  O8       1.0000 0.95460  0.04540  0.04540  Biso   1.000  O 
  O9       1.0000 0.04540  0.54540  0.54540  Biso   1.000  O 
  O10      1.0000 0.95460  0.45460  0.54540  Biso   1.000  O 
  O11      1.0000 0.95460  0.54540  0.45460  Biso   1.000  O 
  O12      1.0000 0.04540  0.45460  0.45460  Biso   1.000  O 
  O13      1.0000 0.04540  0.54540  0.45460  Biso   1.000  O 
  O14      1.0000 0.95460  0.45460  0.45460  Biso   1.000  O 
  O15      1.0000 0.04540  0.45460  0.54540  Biso   1.000  O 
  O16      1.0000 0.95460  0.54540  0.54540  Biso   1.000  O 
  O17      1.0000 0.54540  0.04540  0.54540  Biso   1.000  O 
  O18      1.0000 0.45460  0.95460  0.54540  Biso   1.000  O 
  O19      1.0000 0.45460  0.04540  0.45460  Biso   1.000  O 
  O20      1.0000 0.54540  0.95460  0.45460  Biso   1.000  O 
  O21      1.0000 0.54540  0.04540  0.45460  Biso   1.000  O 
  O22      1.0000 0.45460  0.95460  0.45460  Biso   1.000  O 
  O23      1.0000 0.54540  0.95460  0.54540  Biso   1.000  O 
  O24      1.0000 0.45460  0.04540  0.54540  Biso   1.000  O 
  O25      1.0000 0.54540  0.54540  0.04540  Biso   1.000  O 
  O26      1.0000 0.45460  0.45460  0.04540  Biso   1.000  O 
  O27      1.0000 0.45460  0.54540  0.95460  Biso   1.000  O 
  O28      1.0000 0.54540  0.45460  0.95460  Biso   1.000  O 
  O29      1.0000 0.54540  0.54540  0.95460  Biso   1.000  O 
  O30      1.0000 0.45460  0.45460  0.95460  Biso   1.000  O 
  O31      1.0000 0.54540  0.45460  0.04540  Biso   1.000  O 
  O32      1.0000 0.45460  0.54540  0.04540  Biso   1.000  O 
  O33      1.0000 0.13260  0.00000  0.07190  Biso   1.000  O 
  C1       1.0000 0.11720  0.00000  0.11720  Biso   1.000  C 
  O34      1.0000 0.07190  0.00000  0.13260  Biso   1.000  O 
  C2       1.0000 0.15650  0.00000  0.15650  Biso   1.000  C 
  C3       1.0000 0.20580  0.00000  0.14470  Biso   1.000  C 
  C4       1.0000 0.14470  0.00000  0.20580  Biso   1.000  C 
  C5       1.0000 0.24200  0.00000  0.17950  Biso   1.000  C 
  H1       1.0000 0.21490  0.00000  0.11140  Biso   1.000  H 
  C6       1.0000 0.17950  0.00000  0.24200  Biso   1.000  C 
  H2       1.0000 0.11140  0.00000  0.21490  Biso   1.000  H 
  C7       1.0000 0.23070  0.00000  0.23070  Biso   1.000  C 
  C8       1.0000 0.26930  0.00000  0.26930  Biso   1.000  C 
  H3       1.0000 0.27510  0.00000  0.16950  Biso   1.000  H 
  C9       1.0000 0.32050  0.00000  0.25800  Biso   1.000  C 
  N1       1.0000 0.15941  0.00556  0.29330  Biso   1.000  N 
  C10      1.0000 0.25800  0.00000  0.32050  Biso   1.000  C 
  C11      1.0000 0.35530  0.00000  0.29420  Biso   1.000  C 
  N2       1.0000 0.33754  0.02707  0.21024  Biso   1.000  N 
  C12      1.0000 0.29420  0.00000  0.35530  Biso   1.000  C 
  H4       1.0000 0.22490  0.00000  0.33050  Biso   1.000  H 
  C13      1.0000 0.34350  0.00000  0.34350  Biso   1.000  C 
  C14      1.0000 0.38280  0.00000  0.38280  Biso   1.000  C 
  H5       1.0000 0.38860  0.00000  0.28510  Biso   1.000  H 
  H6       1.0000 0.28510  0.00000  0.38860  Biso   1.000  H 
  O35      1.0000 0.42810  0.00000  0.36740  Biso   1.000  O 
  O36      1.0000 0.36740  0.00000  0.42810  Biso   1.000  O 
  C15      1.0000 0.37723  0.00095  0.18220  Biso   1.000  C 
  C16      1.0000 0.13262  0.05349  0.29913  Biso   1.000  C 
  C17      1.0000 0.38849  0.02933  0.13267  Biso   1.000  C 
  C18      1.0000 0.16684  0.09863  0.29234  Biso   1.000  C 
  H7       1.0000 0.13430  0.97617  0.29914  Biso   1.000  H 
  H8       1.0000 0.34928  0.06300  0.21930  Biso   1.000  H 
  C19      1.0000 0.13906  0.14989  0.28937  Biso   1.000  C 
  H9       1.0000 0.09944  0.05581  0.27410  Biso   1.000  H 
  H10      1.0000 0.36550  0.96215  0.17410  Biso   1.000  H 
  H11      1.0000 0.10384  0.14941  0.31144  Biso   1.000  H 
  C20      1.0000 0.12722  0.16265  0.23438  Biso   1.000  C 
  H12      1.0000 0.16424  0.17987  0.30325  Biso   1.000  H 
  C21      1.0000 0.41264  0.07882  0.14727  Biso   1.000  C 
  H13      1.0000 0.38633  0.10520  0.16397  Biso   1.000  H 
  C22      1.0000 0.43807  0.10624  0.10526  Biso   1.000  C 
  H14      1.0000 0.44390  0.07102  0.17422  Biso   1.000  H 
  H15      1.0000 0.41238  0.99996  0.20519  Biso   1.000  H 
  H16      1.0000 0.11832  0.05592  0.33774  Biso   1.000  H 
  H17      1.0000 0.35552  0.03428  0.10957  Biso   1.000  H 
  H18      1.0000 0.41694  0.00959  0.11098  Biso   1.000  H 
  H19      1.0000 0.19194  0.09397  0.26017  Biso   1.000  H 
  H20      1.0000 0.19070  0.09825  0.32616  Biso   1.000  H 
  H21      1.0000 0.09747  0.13815  0.21994  Biso   1.000  H 
  H22      1.0000 0.16122  0.15696  0.21098  Biso   1.000  H 
  H23      1.0000 0.41954  0.10037  0.06929  Biso   1.000  H 
  H24      1.0000 0.47804  0.09459  0.10230  Biso   1.000  H 
  H25      1.0000 0.11571  0.20229  0.23187  Biso   1.000  H 
  H26      1.0000 0.43658  0.14583  0.11563  Biso   1.000  H 
  O37      1.0000 0.86740  0.00000  0.07190  Biso   1.000  O 
  C23      1.0000 0.88280  0.00000  0.11720  Biso   1.000  C 
  O38      1.0000 0.92810  0.00000  0.13260  Biso   1.000  O 
  C24      1.0000 0.84350  0.00000  0.15650  Biso   1.000  C 
  C25      1.0000 0.79420  0.00000  0.14470  Biso   1.000  C 
  C26      1.0000 0.85530  0.00000  0.20580  Biso   1.000  C 
  C27      1.0000 0.75800  0.00000  0.17950  Biso   1.000  C 
  H27      1.0000 0.78510  0.00000  0.11140  Biso   1.000  H 
  C28      1.0000 0.82050  0.00000  0.24200  Biso   1.000  C 
  H28      1.0000 0.88860  0.00000  0.21490  Biso   1.000  H 
  C29      1.0000 0.76930  0.00000  0.23070  Biso   1.000  C 
  C30      1.0000 0.73070  0.00000  0.26930  Biso   1.000  C 
  H29      1.0000 0.72490  0.00000  0.16950  Biso   1.000  H 
  C31      1.0000 0.67950  0.00000  0.25800  Biso   1.000  C 
  N3       1.0000 0.84059  0.99443  0.29330  Biso   1.000  N 
  C32      1.0000 0.74200  0.00000  0.32050  Biso   1.000  C 
  C33      1.0000 0.64470  0.00000  0.29420  Biso   1.000  C 
  N4       1.0000 0.66246  0.97293  0.21024  Biso   1.000  N 
  C34      1.0000 0.70580  0.00000  0.35530  Biso   1.000  C 
  H30      1.0000 0.77510  0.00000  0.33050  Biso   1.000  H 
  C35      1.0000 0.65650  0.00000  0.34350  Biso   1.000  C 
  C36      1.0000 0.61720  0.00000  0.38280  Biso   1.000  C 
  H31      1.0000 0.61140  0.00000  0.28510  Biso   1.000  H 
  H32      1.0000 0.71490  0.00000  0.38860  Biso   1.000  H 
  O39      1.0000 0.57190  0.00000  0.36740  Biso   1.000  O 
  O40      1.0000 0.63260  0.00000  0.42810  Biso   1.000  O 
  C37      1.0000 0.62277  0.99905  0.18220  Biso   1.000  C 
  C38      1.0000 0.86739  0.94651  0.29913  Biso   1.000  C 
  C39      1.0000 0.61151  0.97067  0.13267  Biso   1.000  C 
  C40      1.0000 0.83316  0.90136  0.29235  Biso   1.000  C 
  H33      1.0000 0.86570  0.02383  0.29914  Biso   1.000  H 
  H34      1.0000 0.65073  0.93700  0.21930  Biso   1.000  H 
  C41      1.0000 0.86094  0.85010  0.28937  Biso   1.000  C 
  H35      1.0000 0.90056  0.94419  0.27410  Biso   1.000  H 
  H36      1.0000 0.63450  0.03785  0.17410  Biso   1.000  H 
  H37      1.0000 0.89617  0.85058  0.31143  Biso   1.000  H 
  C42      1.0000 0.87278  0.83735  0.23437  Biso   1.000  C 
  H38      1.0000 0.83576  0.82013  0.30324  Biso   1.000  H 
  C43      1.0000 0.58735  0.92119  0.14727  Biso   1.000  C 
  H39      1.0000 0.61365  0.89481  0.16397  Biso   1.000  H 
  C44      1.0000 0.56192  0.89377  0.10525  Biso   1.000  C 
  H40      1.0000 0.55608  0.92900  0.17421  Biso   1.000  H 
  H41      1.0000 0.58762  0.00004  0.20519  Biso   1.000  H 
  H42      1.0000 0.88168  0.94408  0.33774  Biso   1.000  H 
  H43      1.0000 0.64448  0.96571  0.10957  Biso   1.000  H 
  H44      1.0000 0.58307  0.99041  0.11097  Biso   1.000  H 
  H45      1.0000 0.80806  0.90602  0.26018  Biso   1.000  H 
  H46      1.0000 0.80931  0.90174  0.32616  Biso   1.000  H 
  H47      1.0000 0.90253  0.86186  0.21993  Biso   1.000  H 
  H48      1.0000 0.83878  0.84305  0.21098  Biso   1.000  H 
  H49      1.0000 0.58044  0.89965  0.06928  Biso   1.000  H 
  H50      1.0000 0.52194  0.90542  0.10230  Biso   1.000  H 
  H51      1.0000 0.88429  0.79771  0.23185  Biso   1.000  H 
  H52      1.0000 0.56342  0.85418  0.11561  Biso   1.000  H 
  O41      1.0000 0.86740  0.00000  0.92810  Biso   1.000  O 
  C45      1.0000 0.88280  0.00000  0.88280  Biso   1.000  C 
  O42      1.0000 0.92810  0.00000  0.86740  Biso   1.000  O 
  C46      1.0000 0.84350  0.00000  0.84350  Biso   1.000  C 
  C47      1.0000 0.79420  0.00000  0.85530  Biso   1.000  C 
  C48      1.0000 0.85530  0.00000  0.79420  Biso   1.000  C 
  C49      1.0000 0.75800  0.00000  0.82050  Biso   1.000  C 
  H53      1.0000 0.78510  0.00000  0.88860  Biso   1.000  H 
  C50      1.0000 0.82050  0.00000  0.75800  Biso   1.000  C 
  H54      1.0000 0.88860  0.00000  0.78510  Biso   1.000  H 
  C51      1.0000 0.76930  0.00000  0.76930  Biso   1.000  C 
  C52      1.0000 0.73070  0.00000  0.73070  Biso   1.000  C 
  H55      1.0000 0.72490  0.00000  0.83050  Biso   1.000  H 
  C53      1.0000 0.67950  0.00000  0.74200  Biso   1.000  C 
  N5       1.0000 0.84059  0.00555  0.70670  Biso   1.000  N 
  C54      1.0000 0.74200  0.00000  0.67950  Biso   1.000  C 
  C55      1.0000 0.64470  0.00000  0.70580  Biso   1.000  C 
  N6       1.0000 0.66246  0.02707  0.78976  Biso   1.000  N 
  C56      1.0000 0.70580  0.00000  0.64470  Biso   1.000  C 
  H56      1.0000 0.77510  0.00000  0.66950  Biso   1.000  H 
  C57      1.0000 0.65650  0.00000  0.65650  Biso   1.000  C 
  C58      1.0000 0.61720  0.00000  0.61720  Biso   1.000  C 
  H57      1.0000 0.61140  0.00000  0.71490  Biso   1.000  H 
  H58      1.0000 0.71490  0.00000  0.61140  Biso   1.000  H 
  O43      1.0000 0.57190  0.00000  0.63260  Biso   1.000  O 
  O44      1.0000 0.63260  0.00000  0.57190  Biso   1.000  O 
  C59      1.0000 0.62278  0.00094  0.81780  Biso   1.000  C 
  C60      1.0000 0.86740  0.05347  0.70086  Biso   1.000  C 
  C61      1.0000 0.61151  0.02932  0.86734  Biso   1.000  C 
  C62      1.0000 0.83320  0.09863  0.70764  Biso   1.000  C 
  H59      1.0000 0.86570  0.97615  0.70087  Biso   1.000  H 
  H60      1.0000 0.65071  0.06300  0.78070  Biso   1.000  H 
  C63      1.0000 0.86099  0.14988  0.71070  Biso   1.000  C 
  H61      1.0000 0.90058  0.05578  0.72588  Biso   1.000  H 
  H62      1.0000 0.63452  0.96215  0.82590  Biso   1.000  H 
  H63      1.0000 0.89624  0.14941  0.68867  Biso   1.000  H 
  C64      1.0000 0.87279  0.16257  0.76573  Biso   1.000  C 
  H64      1.0000 0.83583  0.17988  0.69683  Biso   1.000  H 
  C65      1.0000 0.58730  0.07877  0.85274  Biso   1.000  C 
  H65      1.0000 0.61357  0.10515  0.83601  Biso   1.000  H 
  C66      1.0000 0.56185  0.10618  0.89476  Biso   1.000  C 
  H66      1.0000 0.55603  0.07093  0.82582  Biso   1.000  H 
  H67      1.0000 0.58763  0.99994  0.79481  Biso   1.000  H 
  H68      1.0000 0.88169  0.05589  0.66225  Biso   1.000  H 
  H69      1.0000 0.64449  0.03430  0.89042  Biso   1.000  H 
  H70      1.0000 0.58309  0.00955  0.88904  Biso   1.000  H 
  H71      1.0000 0.80804  0.09396  0.73976  Biso   1.000  H 
  H72      1.0000 0.80939  0.09831  0.67378  Biso   1.000  H 
  H73      1.0000 0.90253  0.13805  0.78014  Biso   1.000  H 
  H74      1.0000 0.83876  0.15682  0.78907  Biso   1.000  H 
  H75      1.0000 0.58032  0.10025  0.93075  Biso   1.000  H 
  H76      1.0000 0.52186  0.09457  0.89765  Biso   1.000  H 
  H77      1.0000 0.88428  0.20221  0.76834  Biso   1.000  H 
  H78      1.0000 0.56341  0.14579  0.88444  Biso   1.000  H 
  O45      1.0000 0.13260  0.00000  0.92810  Biso   1.000  O 
  C67      1.0000 0.11720  0.00000  0.88280  Biso   1.000  C 
  O46      1.0000 0.07190  0.00000  0.86740  Biso   1.000  O 
  C68      1.0000 0.15650  0.00000  0.84350  Biso   1.000  C 
  C69      1.0000 0.20580  0.00000  0.85530  Biso   1.000  C 
  C70      1.0000 0.14470  0.00000  0.79420  Biso   1.000  C 
  C71      1.0000 0.24200  0.00000  0.82050  Biso   1.000  C 
  H79      1.0000 0.21490  0.00000  0.88860  Biso   1.000  H 
  C72      1.0000 0.17950  0.00000  0.75800  Biso   1.000  C 
  H80      1.0000 0.11140  0.00000  0.78510  Biso   1.000  H 
  C73      1.0000 0.23070  0.00000  0.76930  Biso   1.000  C 
  C74      1.0000 0.26930  0.00000  0.73070  Biso   1.000  C 
  H81      1.0000 0.27510  0.00000  0.83050  Biso   1.000  H 
  C75      1.0000 0.32050  0.00000  0.74200  Biso   1.000  C 
  N7       1.0000 0.15941  0.99445  0.70670  Biso   1.000  N 
  C76      1.0000 0.25800  0.00000  0.67950  Biso   1.000  C 
  C77      1.0000 0.35530  0.00000  0.70580  Biso   1.000  C 
  N8       1.0000 0.33754  0.97293  0.78976  Biso   1.000  N 
  C78      1.0000 0.29420  0.00000  0.64470  Biso   1.000  C 
  H82      1.0000 0.22490  0.00000  0.66950  Biso   1.000  H 
  C79      1.0000 0.34350  0.00000  0.65650  Biso   1.000  C 
  C80      1.0000 0.38280  0.00000  0.61720  Biso   1.000  C 
  H83      1.0000 0.38860  0.00000  0.71490  Biso   1.000  H 
  H84      1.0000 0.28510  0.00000  0.61140  Biso   1.000  H 
  O47      1.0000 0.42810  0.00000  0.63260  Biso   1.000  O 
  O48      1.0000 0.36740  0.00000  0.57190  Biso   1.000  O 
  C81      1.0000 0.37722  0.99906  0.81780  Biso   1.000  C 
  C82      1.0000 0.13260  0.94652  0.70087  Biso   1.000  C 
  C83      1.0000 0.38849  0.97068  0.86733  Biso   1.000  C 
  C84      1.0000 0.16681  0.90136  0.70764  Biso   1.000  C 
  H85      1.0000 0.13430  0.02385  0.70087  Biso   1.000  H 
  H86      1.0000 0.34928  0.93700  0.78070  Biso   1.000  H 
  C85      1.0000 0.13902  0.85012  0.71069  Biso   1.000  C 
  H87      1.0000 0.09942  0.94421  0.72588  Biso   1.000  H 
  H88      1.0000 0.36549  0.03785  0.82590  Biso   1.000  H 
  H89      1.0000 0.10378  0.85059  0.68865  Biso   1.000  H 
  C86      1.0000 0.12721  0.83741  0.76571  Biso   1.000  C 
  H90      1.0000 0.16418  0.82012  0.69681  Biso   1.000  H 
  C87      1.0000 0.41269  0.92122  0.85274  Biso   1.000  C 
  H91      1.0000 0.38642  0.89484  0.83601  Biso   1.000  H 
  C88      1.0000 0.43814  0.89381  0.89476  Biso   1.000  C 
  H92      1.0000 0.44397  0.92906  0.82582  Biso   1.000  H 
  H93      1.0000 0.41237  0.00005  0.79481  Biso   1.000  H 
  H94      1.0000 0.11831  0.94411  0.66225  Biso   1.000  H 
  H95      1.0000 0.35551  0.96570  0.89042  Biso   1.000  H 
  H96      1.0000 0.41691  0.99044  0.88904  Biso   1.000  H 
  H97      1.0000 0.19195  0.90603  0.73978  Biso   1.000  H 
  H98      1.0000 0.19062  0.90170  0.67380  Biso   1.000  H 
  H99      1.0000 0.09747  0.86193  0.78013  Biso   1.000  H 
  H100     1.0000 0.16124  0.84316  0.78906  Biso   1.000  H 
  H101     1.0000 0.41966  0.89973  0.93074  Biso   1.000  H 
  H102     1.0000 0.47812  0.90542  0.89766  Biso   1.000  H 
  H103     1.0000 0.11572  0.79777  0.76831  Biso   1.000  H 
  H104     1.0000 0.43659  0.85421  0.88443  Biso   1.000  H 
  O49      1.0000 0.07190  0.13260  0.00000  Biso   1.000  O 
  C89      1.0000 0.11720  0.11720  0.00000  Biso   1.000  C 
  O50      1.0000 0.13260  0.07190  0.00000  Biso   1.000  O 
  C90      1.0000 0.15650  0.15650  0.00000  Biso   1.000  C 
  C91      1.0000 0.14470  0.20580  0.00000  Biso   1.000  C 
  C92      1.0000 0.20580  0.14470  0.00000  Biso   1.000  C 
  C93      1.0000 0.17950  0.24200  0.00000  Biso   1.000  C 
  H105     1.0000 0.11140  0.21490  0.00000  Biso   1.000  H 
  C94      1.0000 0.24200  0.17950  0.00000  Biso   1.000  C 
  H106     1.0000 0.21490  0.11140  0.00000  Biso   1.000  H 
  C95      1.0000 0.23070  0.23070  0.00000  Biso   1.000  C 
  C96      1.0000 0.26930  0.26930  0.00000  Biso   1.000  C 
  H107     1.0000 0.16950  0.27510  0.00000  Biso   1.000  H 
  C97      1.0000 0.25800  0.32050  0.00000  Biso   1.000  C 
  N9       1.0000 0.29076  0.16175  0.02579  Biso   1.000  N 
  C98      1.0000 0.32050  0.25800  0.00000  Biso   1.000  C 
  C99      1.0000 0.29420  0.35530  0.00000  Biso   1.000  C 
  N10      1.0000 0.20628  0.34140  0.99380  Biso   1.000  N 
  C100     1.0000 0.35530  0.29420  0.00000  Biso   1.000  C 
  H108     1.0000 0.33050  0.22490  0.00000  Biso   1.000  H 
  C101     1.0000 0.34350  0.34350  0.00000  Biso   1.000  C 
  C102     1.0000 0.38280  0.38280  0.00000  Biso   1.000  C 
  H109     1.0000 0.28510  0.38860  0.00000  Biso   1.000  H 
  H110     1.0000 0.38860  0.28510  0.00000  Biso   1.000  H 
  O51      1.0000 0.36740  0.42810  0.00000  Biso   1.000  O 
  O52      1.0000 0.42810  0.36740  0.00000  Biso   1.000  O 
  C103     1.0000 0.19812  0.35462  0.94128  Biso   1.000  C 
  C104     1.0000 0.28737  0.14688  0.07932  Biso   1.000  C 
  C105     1.0000 0.14221  0.34927  0.93110  Biso   1.000  C 
  C106     1.0000 0.31989  0.18033  0.11300  Biso   1.000  C 
  H111     1.0000 0.30631  0.13228  0.00525  Biso   1.000  H 
  H112     1.0000 0.20420  0.37455  0.01440  Biso   1.000  H 
  C107     1.0000 0.30677  0.18138  0.16954  Biso   1.000  C 
  H113     1.0000 0.24848  0.15098  0.09330  Biso   1.000  H 
  H114     1.0000 0.22144  0.32965  0.91717  Biso   1.000  H 
  H115     1.0000 0.27651  0.15531  0.17798  Biso   1.000  H 
  C108     1.0000 0.29099  0.23274  0.18469  Biso   1.000  C 
  H116     1.0000 0.33954  0.17227  0.19349  Biso   1.000  H 
  C109     1.0000 0.13629  0.34148  0.87478  Biso   1.000  C 
  H117     1.0000 0.15091  0.30293  0.86748  Biso   1.000  H 
  C110     1.0000 0.16754  0.37855  0.84251  Biso   1.000  C 
  H118     1.0000 0.09545  0.34134  0.86519  Biso   1.000  H 
  H119     1.0000 0.21039  0.39365  0.93445  Biso   1.000  H 
  H120     1.0000 0.29984  0.10751  0.08473  Biso   1.000  H 
  H121     1.0000 0.12335  0.38281  0.94563  Biso   1.000  H 
  H122     1.0000 0.12722  0.31651  0.95001  Biso   1.000  H 
  H123     1.0000 0.32154  0.21859  0.09734  Biso   1.000  H 
  H124     1.0000 0.35807  0.16566  0.11090  Biso   1.000  H 
  H125     1.0000 0.28148  0.23243  0.22477  Biso   1.000  H 
  H126     1.0000 0.25790  0.24330  0.16293  Biso   1.000  H 
  H127     1.0000 0.15770  0.37471  0.80233  Biso   1.000  H 
  H128     1.0000 0.20887  0.37042  0.84385  Biso   1.000  H 
  H129     1.0000 0.32183  0.25988  0.17935  Biso   1.000  H 
  H130     1.0000 0.15937  0.41798  0.85199  Biso   1.000  H 
  O53      1.0000 0.07190  0.86740  0.00000  Biso   1.000  O 
  C111     1.0000 0.11720  0.88280  0.00000  Biso   1.000  C 
  O54      1.0000 0.13260  0.92810  0.00000  Biso   1.000  O 
  C112     1.0000 0.15650  0.84350  0.00000  Biso   1.000  C 
  C113     1.0000 0.14470  0.79420  0.00000  Biso   1.000  C 
  C114     1.0000 0.20580  0.85530  0.00000  Biso   1.000  C 
  C115     1.0000 0.17950  0.75800  0.00000  Biso   1.000  C 
  H131     1.0000 0.11140  0.78510  0.00000  Biso   1.000  H 
  C116     1.0000 0.24200  0.82050  0.00000  Biso   1.000  C 
  H132     1.0000 0.21490  0.88860  0.00000  Biso   1.000  H 
  C117     1.0000 0.23070  0.76930  0.00000  Biso   1.000  C 
  C118     1.0000 0.26930  0.73070  0.00000  Biso   1.000  C 
  H133     1.0000 0.16950  0.72490  0.00000  Biso   1.000  H 
  C119     1.0000 0.25800  0.67950  0.00000  Biso   1.000  C 
  N11      1.0000 0.29079  0.83828  0.97429  Biso   1.000  N 
  C120     1.0000 0.32050  0.74200  0.00000  Biso   1.000  C 
  C121     1.0000 0.29420  0.64470  0.00000  Biso   1.000  C 
  N12      1.0000 0.20622  0.65850  0.00603  Biso   1.000  N 
  C122     1.0000 0.35530  0.70580  0.00000  Biso   1.000  C 
  H134     1.0000 0.33050  0.77510  0.00000  Biso   1.000  H 
  C123     1.0000 0.34350  0.65650  0.00000  Biso   1.000  C 
  C124     1.0000 0.38280  0.61720  0.00000  Biso   1.000  C 
  H135     1.0000 0.28510  0.61140  0.00000  Biso   1.000  H 
  H136     1.0000 0.38860  0.71490  0.00000  Biso   1.000  H 
  O55      1.0000 0.36740  0.57190  0.00000  Biso   1.000  O 
  O56      1.0000 0.42810  0.63260  0.00000  Biso   1.000  O 
  C125     1.0000 0.19789  0.64485  0.05839  Biso   1.000  C 
  C126     1.0000 0.28741  0.85331  0.92081  Biso   1.000  C 
  C127     1.0000 0.14198  0.65040  0.06846  Biso   1.000  C 
  C128     1.0000 0.31983  0.81991  0.88700  Biso   1.000  C 
  H137     1.0000 0.30633  0.86769  0.99492  Biso   1.000  H 
  H138     1.0000 0.20419  0.62546  0.98521  Biso   1.000  H 
  C129     1.0000 0.30662  0.81905  0.83050  Biso   1.000  C 
  H139     1.0000 0.24850  0.84934  0.90683  Biso   1.000  H 
  H140     1.0000 0.22113  0.66974  0.08265  Biso   1.000  H 
  H141     1.0000 0.27591  0.84466  0.82228  Biso   1.000  H 
  C130     1.0000 0.29175  0.76750  0.81503  Biso   1.000  C 
  H142     1.0000 0.33919  0.82888  0.80655  Biso   1.000  H 
  C131     1.0000 0.13612  0.65887  0.12465  Biso   1.000  C 
  H143     1.0000 0.15096  0.69743  0.13139  Biso   1.000  H 
  C132     1.0000 0.16726  0.62203  0.15737  Biso   1.000  C 
  H144     1.0000 0.09528  0.65943  0.13425  Biso   1.000  H 
  H145     1.0000 0.21014  0.60580  0.06513  Biso   1.000  H 
  H146     1.0000 0.29997  0.89267  0.91552  Biso   1.000  H 
  H147     1.0000 0.12303  0.61677  0.05419  Biso   1.000  H 
  H148     1.0000 0.12700  0.68297  0.04925  Biso   1.000  H 
  H149     1.0000 0.32148  0.78161  0.90255  Biso   1.000  H 
  H150     1.0000 0.35803  0.83455  0.88910  Biso   1.000  H 
  H151     1.0000 0.28148  0.76813  0.77515  Biso   1.000  H 
  H152     1.0000 0.25924  0.75600  0.83717  Biso   1.000  H 
  H153     1.0000 0.15808  0.62720  0.19754  Biso   1.000  H 
  H154     1.0000 0.20874  0.62920  0.15532  Biso   1.000  H 
  H155     1.0000 0.32322  0.74089  0.81951  Biso   1.000  H 
  H156     1.0000 0.15815  0.58254  0.14903  Biso   1.000  H 
  O57      1.0000 0.92810  0.86740  0.00000  Biso   1.000  O 
  C133     1.0000 0.88280  0.88280  0.00000  Biso   1.000  C 
  O58      1.0000 0.86740  0.92810  0.00000  Biso   1.000  O 
  C134     1.0000 0.84350  0.84350  0.00000  Biso   1.000  C 
  C135     1.0000 0.85530  0.79420  0.00000  Biso   1.000  C 
  C136     1.0000 0.79420  0.85530  0.00000  Biso   1.000  C 
  C137     1.0000 0.82050  0.75800  0.00000  Biso   1.000  C 
  H157     1.0000 0.88860  0.78510  0.00000  Biso   1.000  H 
  C138     1.0000 0.75800  0.82050  0.00000  Biso   1.000  C 
  H158     1.0000 0.78510  0.88860  0.00000  Biso   1.000  H 
  C139     1.0000 0.76930  0.76930  0.00000  Biso   1.000  C 
  C140     1.0000 0.73070  0.73070  0.00000  Biso   1.000  C 
  H159     1.0000 0.83050  0.72490  0.00000  Biso   1.000  H 
  C141     1.0000 0.74200  0.67950  0.00000  Biso   1.000  C 
  N13      1.0000 0.70923  0.83825  0.02578  Biso   1.000  N 
  C142     1.0000 0.67950  0.74200  0.00000  Biso   1.000  C 
  C143     1.0000 0.70580  0.64470  0.00000  Biso   1.000  C 
  N14      1.0000 0.79372  0.65859  0.99376  Biso   1.000  N 
  C144     1.0000 0.64470  0.70580  0.00000  Biso   1.000  C 
  H160     1.0000 0.66950  0.77510  0.00000  Biso   1.000  H 
  C145     1.0000 0.65650  0.65650  0.00000  Biso   1.000  C 
  C146     1.0000 0.61720  0.61720  0.00000  Biso   1.000  C 
  H161     1.0000 0.71490  0.61140  0.00000  Biso   1.000  H 
  H162     1.0000 0.61140  0.71490  0.00000  Biso   1.000  H 
  O59      1.0000 0.63260  0.57190  0.00000  Biso   1.000  O 
  O60      1.0000 0.57190  0.63260  0.00000  Biso   1.000  O 
  C147     1.0000 0.80192  0.64520  0.94128  Biso   1.000  C 
  C148     1.0000 0.71262  0.85315  0.07930  Biso   1.000  C 
  C149     1.0000 0.85780  0.65085  0.93106  Biso   1.000  C 
  C150     1.0000 0.68012  0.81970  0.11300  Biso   1.000  C 
  H163     1.0000 0.69369  0.86772  0.00522  Biso   1.000  H 
  H164     1.0000 0.79587  0.62552  0.01448  Biso   1.000  H 
  C151     1.0000 0.69325  0.81869  0.16953  Biso   1.000  C 
  H165     1.0000 0.75151  0.84907  0.09328  Biso   1.000  H 
  H166     1.0000 0.77841  0.66996  0.91713  Biso   1.000  H 
  H167     1.0000 0.72358  0.84469  0.17794  Biso   1.000  H 
  C152     1.0000 0.70888  0.76730  0.18474  Biso   1.000  C 
  H168     1.0000 0.66051  0.82792  0.19348  Biso   1.000  H 
  C153     1.0000 0.86365  0.65863  0.87475  Biso   1.000  C 
  H169     1.0000 0.84875  0.69709  0.86747  Biso   1.000  H 
  C154     1.0000 0.83261  0.62134  0.84253  Biso   1.000  C 
  H170     1.0000 0.90447  0.65905  0.86512  Biso   1.000  H 
  H171     1.0000 0.78987  0.60609  0.93459  Biso   1.000  H 
  H172     1.0000 0.70013  0.89252  0.08469  Biso   1.000  H 
  H173     1.0000 0.87688  0.61743  0.94558  Biso   1.000  H 
  H174     1.0000 0.87265  0.68369  0.94991  Biso   1.000  H 
  H175     1.0000 0.67848  0.78144  0.09736  Biso   1.000  H 
  H176     1.0000 0.64193  0.83437  0.11089  Biso   1.000  H 
  H177     1.0000 0.71852  0.76767  0.22479  Biso   1.000  H 
  H178     1.0000 0.74187  0.75658  0.16291  Biso   1.000  H 
  H179     1.0000 0.84214  0.62548  0.80232  Biso   1.000  H 
  H180     1.0000 0.79119  0.62895  0.84413  Biso   1.000  H 
  H181     1.0000 0.67794  0.74025  0.17955  Biso   1.000  H 
  H182     1.0000 0.84130  0.58196  0.85181  Biso   1.000  H 
  O61      1.0000 0.92810  0.13260  0.00000  Biso   1.000  O 
  C155     1.0000 0.88280  0.11720  0.00000  Biso   1.000  C 
  O62      1.0000 0.86740  0.07190  0.00000  Biso   1.000  O 
  C156     1.0000 0.84350  0.15650  0.00000  Biso   1.000  C 
  C157     1.0000 0.85530  0.20580  0.00000  Biso   1.000  C 
  C158     1.0000 0.79420  0.14470  0.00000  Biso   1.000  C 
  C159     1.0000 0.82050  0.24200  0.00000  Biso   1.000  C 
  H183     1.0000 0.88860  0.21490  0.00000  Biso   1.000  H 
  C160     1.0000 0.75800  0.17950  0.00000  Biso   1.000  C 
  H184     1.0000 0.78510  0.11140  0.00000  Biso   1.000  H 
  C161     1.0000 0.76930  0.23070  0.00000  Biso   1.000  C 
  C162     1.0000 0.73070  0.26930  0.00000  Biso   1.000  C 
  H185     1.0000 0.83050  0.27510  0.00000  Biso   1.000  H 
  C163     1.0000 0.74200  0.32050  0.00000  Biso   1.000  C 
  N15      1.0000 0.70921  0.16172  0.97430  Biso   1.000  N 
  C164     1.0000 0.67950  0.25800  0.00000  Biso   1.000  C 
  C165     1.0000 0.70580  0.35530  0.00000  Biso   1.000  C 
  N16      1.0000 0.79379  0.34151  0.00602  Biso   1.000  N 
  C166     1.0000 0.64470  0.29420  0.00000  Biso   1.000  C 
  H186     1.0000 0.66950  0.22490  0.00000  Biso   1.000  H 
  C167     1.0000 0.65650  0.34350  0.00000  Biso   1.000  C 
  C168     1.0000 0.61720  0.38280  0.00000  Biso   1.000  C 
  H187     1.0000 0.71490  0.38860  0.00000  Biso   1.000  H 
  H188     1.0000 0.61140  0.28510  0.00000  Biso   1.000  H 
  O63      1.0000 0.63260  0.42810  0.00000  Biso   1.000  O 
  O64      1.0000 0.57190  0.36740  0.00000  Biso   1.000  O 
  C169     1.0000 0.80216  0.35527  0.05835  Biso   1.000  C 
  C170     1.0000 0.71259  0.14666  0.92083  Biso   1.000  C 
  C171     1.0000 0.85806  0.34960  0.06841  Biso   1.000  C 
  C172     1.0000 0.68018  0.18004  0.88700  Biso   1.000  C 
  H189     1.0000 0.69367  0.13231  0.99495  Biso   1.000  H 
  H190     1.0000 0.79584  0.37452  0.98515  Biso   1.000  H 
  C173     1.0000 0.69342  0.18089  0.83051  Biso   1.000  C 
  H191     1.0000 0.75150  0.15061  0.90685  Biso   1.000  H 
  H192     1.0000 0.77888  0.33044  0.08263  Biso   1.000  H 
  H193     1.0000 0.72423  0.15539  0.82233  Biso   1.000  H 
  C174     1.0000 0.70810  0.23249  0.81499  Biso   1.000  C 
  H194     1.0000 0.66090  0.17092  0.80655  Biso   1.000  H 
  C175     1.0000 0.86390  0.34105  0.12458  Biso   1.000  C 
  H195     1.0000 0.84894  0.30252  0.13125  Biso   1.000  H 
  C176     1.0000 0.83286  0.37794  0.15733  Biso   1.000  C 
  H196     1.0000 0.90474  0.34035  0.13419  Biso   1.000  H 
  H197     1.0000 0.78997  0.39434  0.06505  Biso   1.000  H 
  H198     1.0000 0.70001  0.10729  0.91556  Biso   1.000  H 
  H199     1.0000 0.87709  0.38319  0.05416  Biso   1.000  H 
  H200     1.0000 0.87298  0.31702  0.04919  Biso   1.000  H 
  H201     1.0000 0.67851  0.21835  0.90254  Biso   1.000  H 
  H202     1.0000 0.64198  0.16540  0.88908  Biso   1.000  H 
  H203     1.0000 0.71851  0.23181  0.77515  Biso   1.000  H 
  H204     1.0000 0.74049  0.24417  0.83721  Biso   1.000  H 
  H205     1.0000 0.84186  0.37252  0.19751  Biso   1.000  H 
  H206     1.0000 0.79134  0.37108  0.15513  Biso   1.000  H 
  H207     1.0000 0.67650  0.25898  0.81932  Biso   1.000  H 
  H208     1.0000 0.84226  0.41741  0.14921  Biso   1.000  H 
  O65      1.0000 0.00000  0.07190  0.13260  Biso   1.000  O 
  C177     1.0000 0.00000  0.11720  0.11720  Biso   1.000  C 
  O66      1.0000 0.00000  0.13260  0.07190  Biso   1.000  O 
  C178     1.0000 0.00000  0.15650  0.15650  Biso   1.000  C 
  C179     1.0000 0.00000  0.14470  0.20580  Biso   1.000  C 
  C180     1.0000 0.00000  0.20580  0.14470  Biso   1.000  C 
  C181     1.0000 0.00000  0.17950  0.24200  Biso   1.000  C 
  H209     1.0000 0.00000  0.11140  0.21490  Biso   1.000  H 
  C182     1.0000 0.00000  0.24200  0.17950  Biso   1.000  C 
  H210     1.0000 0.00000  0.21490  0.11140  Biso   1.000  H 
  C183     1.0000 0.00000  0.23070  0.23070  Biso   1.000  C 
  C184     1.0000 0.00000  0.26930  0.26930  Biso   1.000  C 
  H211     1.0000 0.00000  0.16950  0.27510  Biso   1.000  H 
  C185     1.0000 0.00000  0.25800  0.32050  Biso   1.000  C 
  N17      1.0000 0.01733  0.29177  0.16122  Biso   1.000  N 
  C186     1.0000 0.00000  0.32050  0.25800  Biso   1.000  C 
  C187     1.0000 0.00000  0.29420  0.35530  Biso   1.000  C 
  N18      1.0000 0.01831  0.20695  0.33960  Biso   1.000  N 
  C188     1.0000 0.00000  0.35530  0.29420  Biso   1.000  C 
  H212     1.0000 0.00000  0.33050  0.22490  Biso   1.000  H 
  C189     1.0000 0.00000  0.34350  0.34350  Biso   1.000  C 
  C190     1.0000 0.00000  0.38280  0.38280  Biso   1.000  C 
  H213     1.0000 0.00000  0.28510  0.38860  Biso   1.000  H 
  H214     1.0000 0.00000  0.38860  0.28510  Biso   1.000  H 
  O67      1.0000 0.00000  0.36740  0.42810  Biso   1.000  O 
  O68      1.0000 0.00000  0.42810  0.36740  Biso   1.000  O 
  C191     1.0000 0.98208  0.18251  0.37222  Biso   1.000  C 
  C192     1.0000 0.07095  0.28770  0.15038  Biso   1.000  C 
  C193     1.0000 0.99379  0.12715  0.36963  Biso   1.000  C 
  C194     1.0000 0.08510  0.31675  0.09954  Biso   1.000  C 
  H215     1.0000 0.99583  0.29894  0.12767  Biso   1.000  H 
  H216     1.0000 0.05212  0.21041  0.35723  Biso   1.000  H 
  C195     1.0000 0.05512  0.36343  0.09126  Biso   1.000  C 
  H217     1.0000 0.08957  0.30452  0.18326  Biso   1.000  H 
  H218     1.0000 0.94353  0.18768  0.35667  Biso   1.000  H 
  H219     1.0000 0.02167  0.35582  0.06611  Biso   1.000  H 
  C196     1.0000 0.08827  0.40272  0.06493  Biso   1.000  C 
  H220     1.0000 0.04027  0.37676  0.12645  Biso   1.000  H 
  C197     1.0000 0.02771  0.11288  0.41231  Biso   1.000  C 
  H221     1.0000 0.06648  0.11747  0.39885  Biso   1.000  H 
  C198     1.0000 0.02436  0.05880  0.42616  Biso   1.000  C 
  H222     1.0000 0.02314  0.13725  0.44642  Biso   1.000  H 
  H223     1.0000 0.98408  0.19896  0.41106  Biso   1.000  H 
  H224     1.0000 0.08512  0.24785  0.14719  Biso   1.000  H 
  H225     1.0000 0.01144  0.11547  0.33407  Biso   1.000  H 
  H226     1.0000 0.95706  0.10878  0.37289  Biso   1.000  H 
  H227     1.0000 0.07937  0.29273  0.06669  Biso   1.000  H 
  H228     1.0000 0.12634  0.32588  0.10060  Biso   1.000  H 
  H229     1.0000 0.12183  0.41040  0.08765  Biso   1.000  H 
  H230     1.0000 0.06985  0.43838  0.06259  Biso   1.000  H 
  H231     1.0000 0.98688  0.04763  0.43848  Biso   1.000  H 
  H232     1.0000 0.05015  0.05470  0.45875  Biso   1.000  H 
  H233     1.0000 0.09945  0.38683  0.02913  Biso   1.000  H 
  H234     1.0000 0.03678  0.03395  0.39563  Biso   1.000  H 
  O69      1.0000 0.00000  0.07190  0.86740  Biso   1.000  O 
  C199     1.0000 0.00000  0.11720  0.88280  Biso   1.000  C 
  O70      1.0000 0.00000  0.13260  0.92810  Biso   1.000  O 
  C200     1.0000 0.00000  0.15650  0.84350  Biso   1.000  C 
  C201     1.0000 0.00000  0.14470  0.79420  Biso   1.000  C 
  C202     1.0000 0.00000  0.20580  0.85530  Biso   1.000  C 
  C203     1.0000 0.00000  0.17950  0.75800  Biso   1.000  C 
  H235     1.0000 0.00000  0.11140  0.78510  Biso   1.000  H 
  C204     1.0000 0.00000  0.24200  0.82050  Biso   1.000  C 
  H236     1.0000 0.00000  0.21490  0.88860  Biso   1.000  H 
  C205     1.0000 0.00000  0.23070  0.76930  Biso   1.000  C 
  C206     1.0000 0.00000  0.26930  0.73070  Biso   1.000  C 
  H237     1.0000 0.00000  0.16950  0.72490  Biso   1.000  H 
  C207     1.0000 0.00000  0.25800  0.67950  Biso   1.000  C 
  N19      1.0000 0.98415  0.29213  0.83941  Biso   1.000  N 
  C208     1.0000 0.00000  0.32050  0.74200  Biso   1.000  C 
  C209     1.0000 0.00000  0.29420  0.64470  Biso   1.000  C 
  N20      1.0000 0.98169  0.20695  0.66040  Biso   1.000  N 
  C210     1.0000 0.00000  0.35530  0.70580  Biso   1.000  C 
  H238     1.0000 0.00000  0.33050  0.77510  Biso   1.000  H 
  C211     1.0000 0.00000  0.34350  0.65650  Biso   1.000  C 
  C212     1.0000 0.00000  0.38280  0.61720  Biso   1.000  C 
  H239     1.0000 0.00000  0.28510  0.61140  Biso   1.000  H 
  H240     1.0000 0.00000  0.38860  0.71490  Biso   1.000  H 
  O71      1.0000 0.00000  0.36740  0.57190  Biso   1.000  O 
  O72      1.0000 0.00000  0.42810  0.63260  Biso   1.000  O 
  C213     1.0000 0.01792  0.18251  0.62778  Biso   1.000  C 
  C214     1.0000 0.93142  0.28760  0.85338  Biso   1.000  C 
  C215     1.0000 0.00621  0.12715  0.63037  Biso   1.000  C 
  C216     1.0000 0.91849  0.31759  0.90349  Biso   1.000  C 
  H241     1.0000 0.00684  0.29896  0.87224  Biso   1.000  H 
  H242     1.0000 0.94788  0.21041  0.64277  Biso   1.000  H 
  C217     1.0000 0.94761  0.36537  0.91042  Biso   1.000  C 
  H243     1.0000 0.91125  0.30290  0.82082  Biso   1.000  H 
  H244     1.0000 0.05647  0.18768  0.64333  Biso   1.000  H 
  H245     1.0000 0.97946  0.36027  0.93826  Biso   1.000  H 
  C218     1.0000 0.91138  0.40352  0.93241  Biso   1.000  C 
  H246     1.0000 0.96396  0.37735  0.87549  Biso   1.000  H 
  C219     1.0000 0.97229  0.11288  0.58769  Biso   1.000  C 
  H247     1.0000 0.93352  0.11746  0.60115  Biso   1.000  H 
  C220     1.0000 0.97565  0.05880  0.57384  Biso   1.000  C 
  H248     1.0000 0.97685  0.13725  0.55358  Biso   1.000  H 
  H249     1.0000 0.01592  0.19896  0.58894  Biso   1.000  H 
  H250     1.0000 0.91761  0.24767  0.85830  Biso   1.000  H 
  H251     1.0000 0.98855  0.11547  0.66592  Biso   1.000  H 
  H252     1.0000 0.04294  0.10878  0.62711  Biso   1.000  H 
  H253     1.0000 0.92482  0.29428  0.93653  Biso   1.000  H 
  H254     1.0000 0.87657  0.32456  0.90180  Biso   1.000  H 
  H255     1.0000 0.88060  0.41092  0.90579  Biso   1.000  H 
  H256     1.0000 0.92873  0.43923  0.93806  Biso   1.000  H 
  H257     1.0000 0.01313  0.04764  0.56151  Biso   1.000  H 
  H258     1.0000 0.94985  0.05469  0.54125  Biso   1.000  H 
  H259     1.0000 0.89618  0.38660  0.96643  Biso   1.000  H 
  H260     1.0000 0.96323  0.03395  0.60436  Biso   1.000  H 
  O73      1.0000 0.00000  0.92810  0.86740  Biso   1.000  O 
  C221     1.0000 0.00000  0.88280  0.88280  Biso   1.000  C 
  O74      1.0000 0.00000  0.86740  0.92810  Biso   1.000  O 
  C222     1.0000 0.00000  0.84350  0.84350  Biso   1.000  C 
  C223     1.0000 0.00000  0.85530  0.79420  Biso   1.000  C 
  C224     1.0000 0.00000  0.79420  0.85530  Biso   1.000  C 
  C225     1.0000 0.00000  0.82050  0.75800  Biso   1.000  C 
  H261     1.0000 0.00000  0.88860  0.78510  Biso   1.000  H 
  C226     1.0000 0.00000  0.75800  0.82050  Biso   1.000  C 
  H262     1.0000 0.00000  0.78510  0.88860  Biso   1.000  H 
  C227     1.0000 0.00000  0.76930  0.76930  Biso   1.000  C 
  C228     1.0000 0.00000  0.73070  0.73070  Biso   1.000  C 
  H263     1.0000 0.00000  0.83050  0.72490  Biso   1.000  H 
  C229     1.0000 0.00000  0.74200  0.67950  Biso   1.000  C 
  N21      1.0000 0.01614  0.70793  0.83927  Biso   1.000  N 
  C230     1.0000 0.00000  0.67950  0.74200  Biso   1.000  C 
  C231     1.0000 0.00000  0.70580  0.64470  Biso   1.000  C 
  N22      1.0000 0.01831  0.79304  0.66040  Biso   1.000  N 
  C232     1.0000 0.00000  0.64470  0.70580  Biso   1.000  C 
  H264     1.0000 0.00000  0.66950  0.77510  Biso   1.000  H 
  C233     1.0000 0.00000  0.65650  0.65650  Biso   1.000  C 
  C234     1.0000 0.00000  0.61720  0.61720  Biso   1.000  C 
  H265     1.0000 0.00000  0.71490  0.61140  Biso   1.000  H 
  H266     1.0000 0.00000  0.61140  0.71490  Biso   1.000  H 
  O75      1.0000 0.00000  0.63260  0.57190  Biso   1.000  O 
  O76      1.0000 0.00000  0.57190  0.63260  Biso   1.000  O 
  C235     1.0000 0.98208  0.81749  0.62778  Biso   1.000  C 
  C236     1.0000 0.06904  0.71246  0.85267  Biso   1.000  C 
  C237     1.0000 0.99379  0.87285  0.63037  Biso   1.000  C 
  C238     1.0000 0.08223  0.68247  0.90282  Biso   1.000  C 
  H267     1.0000 0.99366  0.70100  0.87224  Biso   1.000  H 
  H268     1.0000 0.05212  0.78959  0.64277  Biso   1.000  H 
  C239     1.0000 0.05285  0.63493  0.90990  Biso   1.000  C 
  H269     1.0000 0.08895  0.69704  0.81998  Biso   1.000  H 
  H270     1.0000 0.94353  0.81233  0.64333  Biso   1.000  H 
  H271     1.0000 0.02054  0.64060  0.93706  Biso   1.000  H 
  C240     1.0000 0.08844  0.59666  0.93303  Biso   1.000  C 
  H272     1.0000 0.03697  0.62265  0.87486  Biso   1.000  H 
  C241     1.0000 0.02771  0.88712  0.58769  Biso   1.000  C 
  H273     1.0000 0.06648  0.88254  0.60115  Biso   1.000  H 
  C242     1.0000 0.02435  0.94120  0.57383  Biso   1.000  C 
  H274     1.0000 0.02315  0.86275  0.55358  Biso   1.000  H 
  H275     1.0000 0.98408  0.80104  0.58894  Biso   1.000  H 
  H276     1.0000 0.08285  0.75238  0.85742  Biso   1.000  H 
  H277     1.0000 0.01145  0.88453  0.66592  Biso   1.000  H 
  H278     1.0000 0.95706  0.89122  0.62711  Biso   1.000  H 
  H279     1.0000 0.07619  0.70580  0.93594  Biso   1.000  H 
  H280     1.0000 0.12402  0.67500  0.90108  Biso   1.000  H 
  H281     1.0000 0.11986  0.58909  0.90724  Biso   1.000  H 
  H282     1.0000 0.07084  0.56098  0.93821  Biso   1.000  H 
  H283     1.0000 0.98687  0.95236  0.56151  Biso   1.000  H 
  H284     1.0000 0.05015  0.94531  0.54124  Biso   1.000  H 
  H285     1.0000 0.10284  0.61361  0.96734  Biso   1.000  H 
  H286     1.0000 0.03677  0.96605  0.60436  Biso   1.000  H 
  O77      1.0000 0.00000  0.92810  0.13260  Biso   1.000  O 
  C243     1.0000 0.00000  0.88280  0.11720  Biso   1.000  C 
  O78      1.0000 0.00000  0.86740  0.07190  Biso   1.000  O 
  C244     1.0000 0.00000  0.84350  0.15650  Biso   1.000  C 
  C245     1.0000 0.00000  0.85530  0.20580  Biso   1.000  C 
  C246     1.0000 0.00000  0.79420  0.14470  Biso   1.000  C 
  C247     1.0000 0.00000  0.82050  0.24200  Biso   1.000  C 
  H287     1.0000 0.00000  0.88860  0.21490  Biso   1.000  H 
  C248     1.0000 0.00000  0.75800  0.17950  Biso   1.000  C 
  H288     1.0000 0.00000  0.78510  0.11140  Biso   1.000  H 
  C249     1.0000 0.00000  0.76930  0.23070  Biso   1.000  C 
  C250     1.0000 0.00000  0.73070  0.26930  Biso   1.000  C 
  H289     1.0000 0.00000  0.83050  0.27510  Biso   1.000  H 
  C251     1.0000 0.00000  0.74200  0.32050  Biso   1.000  C 
  N23      1.0000 0.98283  0.70819  0.16116  Biso   1.000  N 
  C252     1.0000 0.00000  0.67950  0.25800  Biso   1.000  C 
  C253     1.0000 0.00000  0.70580  0.35530  Biso   1.000  C 
  N24      1.0000 0.98169  0.79304  0.33960  Biso   1.000  N 
  C254     1.0000 0.00000  0.64470  0.29420  Biso   1.000  C 
  H290     1.0000 0.00000  0.66950  0.22490  Biso   1.000  H 
  C255     1.0000 0.00000  0.65650  0.34350  Biso   1.000  C 
  C256     1.0000 0.00000  0.61720  0.38280  Biso   1.000  C 
  H291     1.0000 0.00000  0.71490  0.38860  Biso   1.000  H 
  H292     1.0000 0.00000  0.61140  0.28510  Biso   1.000  H 
  O79      1.0000 0.00000  0.63260  0.42810  Biso   1.000  O 
  O80      1.0000 0.00000  0.57190  0.36740  Biso   1.000  O 
  C257     1.0000 0.01793  0.81749  0.37222  Biso   1.000  C 
  C258     1.0000 0.92932  0.71236  0.14995  Biso   1.000  C 
  C259     1.0000 0.00621  0.87285  0.36963  Biso   1.000  C 
  C260     1.0000 0.91529  0.68308  0.09926  Biso   1.000  C 
  H293     1.0000 0.00449  0.70101  0.12771  Biso   1.000  H 
  H294     1.0000 0.94788  0.78959  0.35723  Biso   1.000  H 
  C261     1.0000 0.94523  0.63630  0.09123  Biso   1.000  C 
  H295     1.0000 0.91049  0.69584  0.18285  Biso   1.000  H 
  H296     1.0000 0.05647  0.81232  0.35667  Biso   1.000  H 
  H297     1.0000 0.97866  0.64371  0.06598  Biso   1.000  H 
  C262     1.0000 0.91184  0.59724  0.06508  Biso   1.000  C 
  H298     1.0000 0.96005  0.62306  0.12646  Biso   1.000  H 
  C263     1.0000 0.97229  0.88712  0.41231  Biso   1.000  C 
  H299     1.0000 0.93352  0.88253  0.39885  Biso   1.000  H 
  C264     1.0000 0.97564  0.94120  0.42616  Biso   1.000  C 
  H300     1.0000 0.97686  0.86275  0.44642  Biso   1.000  H 
  H301     1.0000 0.01592  0.80104  0.41106  Biso   1.000  H 
  H302     1.0000 0.91522  0.75223  0.14645  Biso   1.000  H 
  H303     1.0000 0.98856  0.88453  0.33407  Biso   1.000  H 
  H304     1.0000 0.04295  0.89122  0.37289  Biso   1.000  H 
  H305     1.0000 0.92098  0.70693  0.06630  Biso   1.000  H 
  H306     1.0000 0.87399  0.67412  0.10049  Biso   1.000  H 
  H307     1.0000 0.87849  0.58947  0.08812  Biso   1.000  H 
  H308     1.0000 0.93019  0.56159  0.06223  Biso   1.000  H 
  H309     1.0000 0.01313  0.95236  0.43848  Biso   1.000  H 
  H310     1.0000 0.94985  0.94530  0.45875  Biso   1.000  H 
  H311     1.0000 0.90025  0.61346  0.02953  Biso   1.000  H 
  H312     1.0000 0.96322  0.96605  0.39563  Biso   1.000  H 
  O81      1.0000 0.13260  0.50000  0.57190  Biso   1.000  O 
  C265     1.0000 0.11720  0.50000  0.61720  Biso   1.000  C 
  O82      1.0000 0.07190  0.50000  0.63260  Biso   1.000  O 
  C266     1.0000 0.15650  0.50000  0.65650  Biso   1.000  C 
  C267     1.0000 0.20580  0.50000  0.64470  Biso   1.000  C 
  C268     1.0000 0.14470  0.50000  0.70580  Biso   1.000  C 
  C269     1.0000 0.24200  0.50000  0.67950  Biso   1.000  C 
  H313     1.0000 0.21490  0.50000  0.61140  Biso   1.000  H 
  C270     1.0000 0.17950  0.50000  0.74200  Biso   1.000  C 
  H314     1.0000 0.11140  0.50000  0.71490  Biso   1.000  H 
  C271     1.0000 0.23070  0.50000  0.73070  Biso   1.000  C 
  C272     1.0000 0.26930  0.50000  0.76930  Biso   1.000  C 
  H315     1.0000 0.27510  0.50000  0.66950  Biso   1.000  H 
  C273     1.0000 0.32050  0.50000  0.75800  Biso   1.000  C 
  N25      1.0000 0.16125  0.52579  0.78893  Biso   1.000  N 
  C274     1.0000 0.25800  0.50000  0.82050  Biso   1.000  C 
  C275     1.0000 0.35530  0.50000  0.79420  Biso   1.000  C 
  N26      1.0000 0.34056  0.49386  0.70593  Biso   1.000  N 
  C276     1.0000 0.29420  0.50000  0.85530  Biso   1.000  C 
  H316     1.0000 0.22490  0.50000  0.83050  Biso   1.000  H 
  C277     1.0000 0.34350  0.50000  0.84350  Biso   1.000  C 
  C278     1.0000 0.38280  0.50000  0.88280  Biso   1.000  C 
  H317     1.0000 0.38860  0.50000  0.78510  Biso   1.000  H 
  H318     1.0000 0.28510  0.50000  0.88860  Biso   1.000  H 
  O83      1.0000 0.42810  0.50000  0.86740  Biso   1.000  O 
  O84      1.0000 0.36740  0.50000  0.92810  Biso   1.000  O 
  C279     1.0000 0.35009  0.44219  0.69674  Biso   1.000  C 
  C280     1.0000 0.14429  0.57912  0.78485  Biso   1.000  C 
  C281     1.0000 0.38005  0.43616  0.64689  Biso   1.000  C 
  C282     1.0000 0.18247  0.60994  0.81350  Biso   1.000  C 
  H319     1.0000 0.13149  0.50529  0.80260  Biso   1.000  H 
  H320     1.0000 0.37436  0.51283  0.70211  Biso   1.000  H 
  C283     1.0000 0.22356  0.62815  0.78109  Biso   1.000  C 
  H321     1.0000 0.13969  0.59257  0.74610  Biso   1.000  H 
  H322     1.0000 0.31353  0.42286  0.69097  Biso   1.000  H 
  H323     1.0000 0.23004  0.60843  0.74519  Biso   1.000  H 
  C284     1.0000 0.27419  0.63327  0.80526  Biso   1.000  C 
  H324     1.0000 0.21145  0.66651  0.77145  Biso   1.000  H 
  C285     1.0000 0.42936  0.40687  0.64797  Biso   1.000  C 
  H325     1.0000 0.42162  0.36818  0.65899  Biso   1.000  H 
  C286     1.0000 0.46967  0.43127  0.67932  Biso   1.000  C 
  H326     1.0000 0.44569  0.40611  0.60975  Biso   1.000  H 
  H327     1.0000 0.36952  0.42472  0.72848  Biso   1.000  H 
  H328     1.0000 0.10740  0.58470  0.80515  Biso   1.000  H 
  H329     1.0000 0.38783  0.47409  0.63019  Biso   1.000  H 
  H330     1.0000 0.35439  0.41572  0.62170  Biso   1.000  H 
  H331     1.0000 0.20036  0.58543  0.84223  Biso   1.000  H 
  H332     1.0000 0.16956  0.64345  0.83358  Biso   1.000  H 
  H333     1.0000 0.29373  0.59856  0.79717  Biso   1.000  H 
  H334     1.0000 0.27123  0.64039  0.84507  Biso   1.000  H 
  H335     1.0000 0.45487  0.44102  0.71689  Biso   1.000  H 
  H336     1.0000 0.48153  0.46512  0.65890  Biso   1.000  H 
  H337     1.0000 0.29286  0.66487  0.78769  Biso   1.000  H 
  H338     1.0000 0.50156  0.40612  0.68407  Biso   1.000  H 
  O85      1.0000 0.86740  0.50000  0.57190  Biso   1.000  O 
  C287     1.0000 0.88280  0.50000  0.61720  Biso   1.000  C 
  O86      1.0000 0.92810  0.50000  0.63260  Biso   1.000  O 
  C288     1.0000 0.84350  0.50000  0.65650  Biso   1.000  C 
  C289     1.0000 0.79420  0.50000  0.64470  Biso   1.000  C 
  C290     1.0000 0.85530  0.50000  0.70580  Biso   1.000  C 
  C291     1.0000 0.75800  0.50000  0.67950  Biso   1.000  C 
  H339     1.0000 0.78510  0.50000  0.61140  Biso   1.000  H 
  C292     1.0000 0.82050  0.50000  0.74200  Biso   1.000  C 
  H340     1.0000 0.88860  0.50000  0.71490  Biso   1.000  H 
  C293     1.0000 0.76930  0.50000  0.73070  Biso   1.000  C 
  C294     1.0000 0.73070  0.50000  0.76930  Biso   1.000  C 
  H341     1.0000 0.72490  0.50000  0.66950  Biso   1.000  H 
  C295     1.0000 0.67950  0.50000  0.75800  Biso   1.000  C 
  N27      1.0000 0.83872  0.47414  0.78892  Biso   1.000  N 
  C296     1.0000 0.74200  0.50000  0.82050  Biso   1.000  C 
  C297     1.0000 0.64470  0.50000  0.79420  Biso   1.000  C 
  N28      1.0000 0.65956  0.50651  0.70590  Biso   1.000  N 
  C298     1.0000 0.70580  0.50000  0.85530  Biso   1.000  C 
  H342     1.0000 0.77510  0.50000  0.83050  Biso   1.000  H 
  C299     1.0000 0.65650  0.50000  0.84350  Biso   1.000  C 
  C300     1.0000 0.61720  0.50000  0.88280  Biso   1.000  C 
  H343     1.0000 0.61140  0.50000  0.78510  Biso   1.000  H 
  H344     1.0000 0.71490  0.50000  0.88860  Biso   1.000  H 
  O87      1.0000 0.57190  0.50000  0.86740  Biso   1.000  O 
  O88      1.0000 0.63260  0.50000  0.92810  Biso   1.000  O 
  C301     1.0000 0.65135  0.55823  0.69562  Biso   1.000  C 
  C302     1.0000 0.85565  0.42077  0.78478  Biso   1.000  C 
  C303     1.0000 0.62006  0.56378  0.64642  Biso   1.000  C 
  C304     1.0000 0.81744  0.38990  0.81334  Biso   1.000  C 
  H345     1.0000 0.86852  0.49459  0.80258  Biso   1.000  H 
  H346     1.0000 0.62533  0.48832  0.70216  Biso   1.000  H 
  C305     1.0000 0.77636  0.37164  0.78089  Biso   1.000  C 
  H347     1.0000 0.86021  0.40738  0.74601  Biso   1.000  H 
  H348     1.0000 0.68826  0.57626  0.68818  Biso   1.000  H 
  H349     1.0000 0.76992  0.39131  0.74496  Biso   1.000  H 
  C306     1.0000 0.72570  0.36660  0.80501  Biso   1.000  C 
  H350     1.0000 0.78843  0.33326  0.77132  Biso   1.000  H 
  C307     1.0000 0.57024  0.59244  0.64922  Biso   1.000  C 
  H351     1.0000 0.57826  0.63119  0.65998  Biso   1.000  H 
  C308     1.0000 0.53153  0.56782  0.68274  Biso   1.000  C 
  H352     1.0000 0.55233  0.59295  0.61176  Biso   1.000  H 
  H353     1.0000 0.63360  0.57702  0.72749  Biso   1.000  H 
  H354     1.0000 0.89253  0.41512  0.80507  Biso   1.000  H 
  H355     1.0000 0.61256  0.52583  0.62962  Biso   1.000  H 
  H356     1.0000 0.64473  0.58481  0.62079  Biso   1.000  H 
  H357     1.0000 0.79951  0.41435  0.84213  Biso   1.000  H 
  H358     1.0000 0.83043  0.35642  0.83340  Biso   1.000  H 
  H359     1.0000 0.70624  0.40132  0.79678  Biso   1.000  H 
  H360     1.0000 0.72860  0.35964  0.84487  Biso   1.000  H 
  H361     1.0000 0.54530  0.56758  0.72175  Biso   1.000  H 
  H362     1.0000 0.52539  0.52954  0.66859  Biso   1.000  H 
  H363     1.0000 0.70697  0.33495  0.78759  Biso   1.000  H 
  H364     1.0000 0.49637  0.58876  0.68203  Biso   1.000  H 
  O89      1.0000 0.86740  0.50000  0.42810  Biso   1.000  O 
  C309     1.0000 0.88280  0.50000  0.38280  Biso   1.000  C 
  O90      1.0000 0.92810  0.50000  0.36740  Biso   1.000  O 
  C310     1.0000 0.84350  0.50000  0.34350  Biso   1.000  C 
  C311     1.0000 0.79420  0.50000  0.35530  Biso   1.000  C 
  C312     1.0000 0.85530  0.50000  0.29420  Biso   1.000  C 
  C313     1.0000 0.75800  0.50000  0.32050  Biso   1.000  C 
  H365     1.0000 0.78510  0.50000  0.38860  Biso   1.000  H 
  C314     1.0000 0.82050  0.50000  0.25800  Biso   1.000  C 
  H366     1.0000 0.88860  0.50000  0.28510  Biso   1.000  H 
  C315     1.0000 0.76930  0.50000  0.26930  Biso   1.000  C 
  C316     1.0000 0.73070  0.50000  0.23070  Biso   1.000  C 
  H367     1.0000 0.72490  0.50000  0.33050  Biso   1.000  H 
  C317     1.0000 0.67950  0.50000  0.24200  Biso   1.000  C 
  N29      1.0000 0.83899  0.52526  0.21096  Biso   1.000  N 
  C318     1.0000 0.74200  0.50000  0.17950  Biso   1.000  C 
  C319     1.0000 0.64470  0.50000  0.20580  Biso   1.000  C 
  N30      1.0000 0.65943  0.49388  0.29407  Biso   1.000  N 
  C320     1.0000 0.70580  0.50000  0.14470  Biso   1.000  C 
  H368     1.0000 0.77510  0.50000  0.16950  Biso   1.000  H 
  C321     1.0000 0.65650  0.50000  0.15650  Biso   1.000  C 
  C322     1.0000 0.61720  0.50000  0.11720  Biso   1.000  C 
  H369     1.0000 0.61140  0.50000  0.21490  Biso   1.000  H 
  H370     1.0000 0.71490  0.50000  0.11140  Biso   1.000  H 
  O91      1.0000 0.57190  0.50000  0.13260  Biso   1.000  O 
  O92      1.0000 0.63260  0.50000  0.07190  Biso   1.000  O 
  C323     1.0000 0.64978  0.44223  0.30319  Biso   1.000  C 
  C324     1.0000 0.85638  0.57837  0.21465  Biso   1.000  C 
  C325     1.0000 0.61989  0.43619  0.35307  Biso   1.000  C 
  C326     1.0000 0.81835  0.60909  0.18569  Biso   1.000  C 
  H371     1.0000 0.86853  0.50442  0.19729  Biso   1.000  H 
  H372     1.0000 0.62567  0.51293  0.29791  Biso   1.000  H 
  C327     1.0000 0.77726  0.62708  0.21793  Biso   1.000  C 
  H373     1.0000 0.86132  0.59208  0.25329  Biso   1.000  H 
  H374     1.0000 0.68633  0.42283  0.30891  Biso   1.000  H 
  H375     1.0000 0.77056  0.60716  0.25365  Biso   1.000  H 
  C328     1.0000 0.72682  0.63273  0.19346  Biso   1.000  C 
  H376     1.0000 0.78964  0.66534  0.22787  Biso   1.000  H 
  C329     1.0000 0.57060  0.40686  0.35211  Biso   1.000  C 
  H377     1.0000 0.57834  0.36814  0.34118  Biso   1.000  H 
  C330     1.0000 0.53024  0.43116  0.32076  Biso   1.000  C 
  H378     1.0000 0.55431  0.40618  0.39035  Biso   1.000  H 
  H379     1.0000 0.63029  0.42483  0.27146  Biso   1.000  H 
  H380     1.0000 0.89323  0.58345  0.19425  Biso   1.000  H 
  H381     1.0000 0.61206  0.47413  0.36974  Biso   1.000  H 
  H382     1.0000 0.64560  0.41583  0.37827  Biso   1.000  H 
  H383     1.0000 0.80051  0.58439  0.15719  Biso   1.000  H 
  H384     1.0000 0.83092  0.64271  0.16554  Biso   1.000  H 
  H385     1.0000 0.70684  0.59813  0.20072  Biso   1.000  H 
  H386     1.0000 0.73017  0.64063  0.15383  Biso   1.000  H 
  H387     1.0000 0.54501  0.44099  0.28320  Biso   1.000  H 
  H388     1.0000 0.51829  0.46496  0.34121  Biso   1.000  H 
  H389     1.0000 0.70847  0.66415  0.21163  Biso   1.000  H 
  H390     1.0000 0.49841  0.40593  0.31601  Biso   1.000  H 
  O93      1.0000 0.13260  0.50000  0.42810  Biso   1.000  O 
  C331     1.0000 0.11720  0.50000  0.38280  Biso   1.000  C 
  O94      1.0000 0.07190  0.50000  0.36740  Biso   1.000  O 
  C332     1.0000 0.15650  0.50000  0.34350  Biso   1.000  C 
  C333     1.0000 0.20580  0.50000  0.35530  Biso   1.000  C 
  C334     1.0000 0.14470  0.50000  0.29420  Biso   1.000  C 
  C335     1.0000 0.24200  0.50000  0.32050  Biso   1.000  C 
  H391     1.0000 0.21490  0.50000  0.38860  Biso   1.000  H 
  C336     1.0000 0.17950  0.50000  0.25800  Biso   1.000  C 
  H392     1.0000 0.11140  0.50000  0.28510  Biso   1.000  H 
  C337     1.0000 0.23070  0.50000  0.26930  Biso   1.000  C 
  C338     1.0000 0.26930  0.50000  0.23070  Biso   1.000  C 
  H393     1.0000 0.27510  0.50000  0.33050  Biso   1.000  H 
  C339     1.0000 0.32050  0.50000  0.24200  Biso   1.000  C 
  N31      1.0000 0.16097  0.47484  0.21094  Biso   1.000  N 
  C340     1.0000 0.25800  0.50000  0.17950  Biso   1.000  C 
  C341     1.0000 0.35530  0.50000  0.20580  Biso   1.000  C 
  N32      1.0000 0.34045  0.50649  0.29411  Biso   1.000  N 
  C342     1.0000 0.29420  0.50000  0.14470  Biso   1.000  C 
  H394     1.0000 0.22490  0.50000  0.16950  Biso   1.000  H 
  C343     1.0000 0.34350  0.50000  0.15650  Biso   1.000  C 
  C344     1.0000 0.38280  0.50000  0.11720  Biso   1.000  C 
  H395     1.0000 0.38860  0.50000  0.21490  Biso   1.000  H 
  H396     1.0000 0.28510  0.50000  0.11140  Biso   1.000  H 
  O95      1.0000 0.42810  0.50000  0.13260  Biso   1.000  O 
  O96      1.0000 0.36740  0.50000  0.07190  Biso   1.000  O 
  C345     1.0000 0.34871  0.55819  0.30438  Biso   1.000  C 
  C346     1.0000 0.14351  0.42178  0.21456  Biso   1.000  C 
  C347     1.0000 0.38002  0.56370  0.35357  Biso   1.000  C 
  C348     1.0000 0.18150  0.39109  0.18552  Biso   1.000  C 
  H397     1.0000 0.13148  0.49575  0.19727  Biso   1.000  H 
  H398     1.0000 0.37467  0.48826  0.29785  Biso   1.000  H 
  C349     1.0000 0.22263  0.37313  0.21768  Biso   1.000  C 
  H399     1.0000 0.13854  0.40803  0.25319  Biso   1.000  H 
  H400     1.0000 0.31181  0.57625  0.31183  Biso   1.000  H 
  H401     1.0000 0.22940  0.39305  0.25339  Biso   1.000  H 
  C350     1.0000 0.27300  0.36738  0.19309  Biso   1.000  C 
  H402     1.0000 0.21021  0.33488  0.22766  Biso   1.000  H 
  C351     1.0000 0.42980  0.59244  0.35080  Biso   1.000  C 
  H403     1.0000 0.42174  0.63118  0.34008  Biso   1.000  H 
  C352     1.0000 0.46856  0.56791  0.31727  Biso   1.000  C 
  H404     1.0000 0.44770  0.59294  0.38826  Biso   1.000  H 
  H405     1.0000 0.36646  0.57697  0.27250  Biso   1.000  H 
  H406     1.0000 0.10665  0.41681  0.19417  Biso   1.000  H 
  H407     1.0000 0.38759  0.52575  0.37030  Biso   1.000  H 
  H408     1.0000 0.35533  0.58466  0.37925  Biso   1.000  H 
  H409     1.0000 0.19930  0.41582  0.15704  Biso   1.000  H 
  H410     1.0000 0.16895  0.35745  0.16538  Biso   1.000  H 
  H411     1.0000 0.29306  0.40197  0.20014  Biso   1.000  H 
  H412     1.0000 0.26954  0.35928  0.15352  Biso   1.000  H 
  H413     1.0000 0.45476  0.56754  0.27828  Biso   1.000  H 
  H414     1.0000 0.47487  0.52967  0.33148  Biso   1.000  H 
  H415     1.0000 0.29134  0.33604  0.21140  Biso   1.000  H 
  H416     1.0000 0.50364  0.58898  0.31791  Biso   1.000  H 
  O97      1.0000 0.07190  0.63260  0.50000  Biso   1.000  O 
  C353     1.0000 0.11720  0.61720  0.50000  Biso   1.000  C 
  O98      1.0000 0.13260  0.57190  0.50000  Biso   1.000  O 
  C354     1.0000 0.15650  0.65650  0.50000  Biso   1.000  C 
  C355     1.0000 0.14470  0.70580  0.50000  Biso   1.000  C 
  C356     1.0000 0.20580  0.64470  0.50000  Biso   1.000  C 
  C357     1.0000 0.17950  0.74200  0.50000  Biso   1.000  C 
  H417     1.0000 0.11140  0.71490  0.50000  Biso   1.000  H 
  C358     1.0000 0.24200  0.67950  0.50000  Biso   1.000  C 
  H418     1.0000 0.21490  0.61140  0.50000  Biso   1.000  H 
  C359     1.0000 0.23070  0.73070  0.50000  Biso   1.000  C 
  C360     1.0000 0.26930  0.76930  0.50000  Biso   1.000  C 
  H419     1.0000 0.16950  0.77510  0.50000  Biso   1.000  H 
  C361     1.0000 0.25800  0.82050  0.50000  Biso   1.000  C 
  N33      1.0000 0.29047  0.66134  0.47367  Biso   1.000  N 
  C362     1.0000 0.32050  0.75800  0.50000  Biso   1.000  C 
  C363     1.0000 0.29420  0.85530  0.50000  Biso   1.000  C 
  N34      1.0000 0.20571  0.83957  0.48300  Biso   1.000  N 
  C364     1.0000 0.35530  0.79420  0.50000  Biso   1.000  C 
  H420     1.0000 0.33050  0.72490  0.50000  Biso   1.000  H 
  C365     1.0000 0.34350  0.84350  0.50000  Biso   1.000  C 
  C366     1.0000 0.38280  0.88280  0.50000  Biso   1.000  C 
  H421     1.0000 0.28510  0.88860  0.50000  Biso   1.000  H 
  H422     1.0000 0.38860  0.78510  0.50000  Biso   1.000  H 
  O99      1.0000 0.36740  0.92810  0.50000  Biso   1.000  O 
  O100     1.0000 0.42810  0.86740  0.50000  Biso   1.000  O 
  C367     1.0000 0.20280  0.85694  0.43020  Biso   1.000  C 
  C368     1.0000 0.31651  0.62679  0.50569  Biso   1.000  C 
  C369     1.0000 0.15544  0.88920  0.41913  Biso   1.000  C 
  C370     1.0000 0.37006  0.61732  0.48721  Biso   1.000  C 
  H423     1.0000 0.28134  0.64236  0.44014  Biso   1.000  H 
  H424     1.0000 0.19613  0.86988  0.50529  Biso   1.000  H 
  C371     1.0000 0.40969  0.64587  0.51875  Biso   1.000  C 
  H425     1.0000 0.31851  0.64253  0.54431  Biso   1.000  H 
  H426     1.0000 0.20209  0.82422  0.40490  Biso   1.000  H 
  H427     1.0000 0.42822  0.67260  0.49298  Biso   1.000  H 
  C372     1.0000 0.44987  0.61055  0.53738  Biso   1.000  C 
  H428     1.0000 0.39477  0.66784  0.54953  Biso   1.000  H 
  C373     1.0000 0.16488  0.94408  0.42527  Biso   1.000  C 
  H429     1.0000 0.18613  0.95368  0.46039  Biso   1.000  H 
  C374     1.0000 0.11680  0.97265  0.42702  Biso   1.000  C 
  H430     1.0000 0.18736  0.95733  0.39318  Biso   1.000  H 
  H431     1.0000 0.23591  0.87994  0.42125  Biso   1.000  H 
  H432     1.0000 0.29643  0.59055  0.50739  Biso   1.000  H 
  H433     1.0000 0.12469  0.87497  0.44451  Biso   1.000  H 
  H434     1.0000 0.14302  0.88424  0.38002  Biso   1.000  H 
  H435     1.0000 0.37380  0.62751  0.44706  Biso   1.000  H 
  H436     1.0000 0.37833  0.57561  0.48957  Biso   1.000  H 
  H437     1.0000 0.43732  0.58406  0.56758  Biso   1.000  H 
  H438     1.0000 0.48328  0.63207  0.54940  Biso   1.000  H 
  H439     1.0000 0.09953  0.97151  0.46386  Biso   1.000  H 
  H440     1.0000 0.08976  0.95478  0.40125  Biso   1.000  H 
  H441     1.0000 0.45898  0.58863  0.50508  Biso   1.000  H 
  H442     1.0000 0.12373  0.01059  0.41414  Biso   1.000  H 
  O101     1.0000 0.07190  0.36740  0.50000  Biso   1.000  O 
  C375     1.0000 0.11720  0.38280  0.50000  Biso   1.000  C 
  O102     1.0000 0.13260  0.42810  0.50000  Biso   1.000  O 
  C376     1.0000 0.15650  0.34350  0.50000  Biso   1.000  C 
  C377     1.0000 0.14470  0.29420  0.50000  Biso   1.000  C 
  C378     1.0000 0.20580  0.35530  0.50000  Biso   1.000  C 
  C379     1.0000 0.17950  0.25800  0.50000  Biso   1.000  C 
  H443     1.0000 0.11140  0.28510  0.50000  Biso   1.000  H 
  C380     1.0000 0.24200  0.32050  0.50000  Biso   1.000  C 
  H444     1.0000 0.21490  0.38860  0.50000  Biso   1.000  H 
  C381     1.0000 0.23070  0.26930  0.50000  Biso   1.000  C 
  C382     1.0000 0.26930  0.23070  0.50000  Biso   1.000  C 
  H445     1.0000 0.16950  0.22490  0.50000  Biso   1.000  H 
  C383     1.0000 0.25800  0.17950  0.50000  Biso   1.000  C 
  N35      1.0000 0.29046  0.33865  0.52633  Biso   1.000  N 
  C384     1.0000 0.32050  0.24200  0.50000  Biso   1.000  C 
  C385     1.0000 0.29420  0.14470  0.50000  Biso   1.000  C 
  N36      1.0000 0.20571  0.16043  0.51700  Biso   1.000  N 
  C386     1.0000 0.35530  0.20580  0.50000  Biso   1.000  C 
  H446     1.0000 0.33050  0.27510  0.50000  Biso   1.000  H 
  C387     1.0000 0.34350  0.15650  0.50000  Biso   1.000  C 
  C388     1.0000 0.38280  0.11720  0.50000  Biso   1.000  C 
  H447     1.0000 0.28510  0.11140  0.50000  Biso   1.000  H 
  H448     1.0000 0.38860  0.21490  0.50000  Biso   1.000  H 
  O103     1.0000 0.36740  0.07190  0.50000  Biso   1.000  O 
  O104     1.0000 0.42810  0.13260  0.50000  Biso   1.000  O 
  C389     1.0000 0.20280  0.14307  0.56981  Biso   1.000  C 
  C390     1.0000 0.31647  0.37320  0.49428  Biso   1.000  C 
  C391     1.0000 0.15544  0.11080  0.58088  Biso   1.000  C 
  C392     1.0000 0.36999  0.38285  0.51274  Biso   1.000  C 
  H449     1.0000 0.28131  0.35768  0.55983  Biso   1.000  H 
  H450     1.0000 0.19613  0.13012  0.49471  Biso   1.000  H 
  C393     1.0000 0.40970  0.35414  0.48142  Biso   1.000  C 
  H451     1.0000 0.31855  0.35739  0.45569  Biso   1.000  H 
  H452     1.0000 0.20209  0.17578  0.59510  Biso   1.000  H 
  H453     1.0000 0.42813  0.32751  0.50735  Biso   1.000  H 
  C394     1.0000 0.44998  0.38933  0.46271  Biso   1.000  C 
  H454     1.0000 0.39485  0.33207  0.45064  Biso   1.000  H 
  C395     1.0000 0.16488  0.05592  0.57473  Biso   1.000  C 
  H455     1.0000 0.18614  0.04632  0.53962  Biso   1.000  H 
  C396     1.0000 0.11680  0.02736  0.57297  Biso   1.000  C 
  H456     1.0000 0.18735  0.04267  0.60682  Biso   1.000  H 
  H457     1.0000 0.23591  0.12006  0.57875  Biso   1.000  H 
  H458     1.0000 0.29633  0.40940  0.49247  Biso   1.000  H 
  H459     1.0000 0.12469  0.12503  0.55549  Biso   1.000  H 
  H460     1.0000 0.14303  0.11576  0.61998  Biso   1.000  H 
  H461     1.0000 0.37361  0.37298  0.55300  Biso   1.000  H 
  H462     1.0000 0.37824  0.42454  0.51010  Biso   1.000  H 
  H463     1.0000 0.43751  0.41581  0.43246  Biso   1.000  H 
  H464     1.0000 0.48332  0.36771  0.45069  Biso   1.000  H 
  H465     1.0000 0.09954  0.02850  0.53613  Biso   1.000  H 
  H466     1.0000 0.08976  0.04523  0.59874  Biso   1.000  H 
  H467     1.0000 0.45914  0.41125  0.49499  Biso   1.000  H 
  H468     1.0000 0.12372  0.98941  0.58585  Biso   1.000  H 
  O105     1.0000 0.92810  0.36740  0.50000  Biso   1.000  O 
  C397     1.0000 0.88280  0.38280  0.50000  Biso   1.000  C 
  O106     1.0000 0.86740  0.42810  0.50000  Biso   1.000  O 
  C398     1.0000 0.84350  0.34350  0.50000  Biso   1.000  C 
  C399     1.0000 0.85530  0.29420  0.50000  Biso   1.000  C 
  C400     1.0000 0.79420  0.35530  0.50000  Biso   1.000  C 
  C401     1.0000 0.82050  0.25800  0.50000  Biso   1.000  C 
  H469     1.0000 0.88860  0.28510  0.50000  Biso   1.000  H 
  C402     1.0000 0.75800  0.32050  0.50000  Biso   1.000  C 
  H470     1.0000 0.78510  0.38860  0.50000  Biso   1.000  H 
  C403     1.0000 0.76930  0.26930  0.50000  Biso   1.000  C 
  C404     1.0000 0.73070  0.23070  0.50000  Biso   1.000  C 
  H471     1.0000 0.83050  0.22490  0.50000  Biso   1.000  H 
  C405     1.0000 0.74200  0.17950  0.50000  Biso   1.000  C 
  N37      1.0000 0.70954  0.33865  0.47367  Biso   1.000  N 
  C406     1.0000 0.67950  0.24200  0.50000  Biso   1.000  C 
  C407     1.0000 0.70580  0.14470  0.50000  Biso   1.000  C 
  N38      1.0000 0.79429  0.16043  0.48300  Biso   1.000  N 
  C408     1.0000 0.64470  0.20580  0.50000  Biso   1.000  C 
  H472     1.0000 0.66950  0.27510  0.50000  Biso   1.000  H 
  C409     1.0000 0.65650  0.15650  0.50000  Biso   1.000  C 
  C410     1.0000 0.61720  0.11720  0.50000  Biso   1.000  C 
  H473     1.0000 0.71490  0.11140  0.50000  Biso   1.000  H 
  H474     1.0000 0.61140  0.21490  0.50000  Biso   1.000  H 
  O107     1.0000 0.63260  0.07190  0.50000  Biso   1.000  O 
  O108     1.0000 0.57190  0.13260  0.50000  Biso   1.000  O 
  C411     1.0000 0.79720  0.14306  0.43020  Biso   1.000  C 
  C412     1.0000 0.68350  0.37316  0.50574  Biso   1.000  C 
  C413     1.0000 0.84456  0.11080  0.41913  Biso   1.000  C 
  C414     1.0000 0.63002  0.38282  0.48722  Biso   1.000  C 
  H475     1.0000 0.71869  0.35770  0.44019  Biso   1.000  H 
  H476     1.0000 0.80387  0.13012  0.50529  Biso   1.000  H 
  C415     1.0000 0.59024  0.35413  0.51847  Biso   1.000  C 
  H477     1.0000 0.68137  0.35730  0.54430  Biso   1.000  H 
  H478     1.0000 0.79791  0.17578  0.40490  Biso   1.000  H 
  H479     1.0000 0.57159  0.32773  0.49245  Biso   1.000  H 
  C416     1.0000 0.55019  0.38941  0.53747  Biso   1.000  C 
  H480     1.0000 0.60508  0.33180  0.54906  Biso   1.000  H 
  C417     1.0000 0.83512  0.05592  0.42527  Biso   1.000  C 
  H481     1.0000 0.81386  0.04632  0.46039  Biso   1.000  H 
  C418     1.0000 0.88321  0.02735  0.42702  Biso   1.000  C 
  H482     1.0000 0.81264  0.04267  0.39318  Biso   1.000  H 
  H483     1.0000 0.76409  0.12006  0.42125  Biso   1.000  H 
  H484     1.0000 0.70364  0.40936  0.50761  Biso   1.000  H 
  H485     1.0000 0.87531  0.12503  0.44451  Biso   1.000  H 
  H486     1.0000 0.85698  0.11576  0.38002  Biso   1.000  H 
  H487     1.0000 0.62644  0.37293  0.44695  Biso   1.000  H 
  H488     1.0000 0.62177  0.42451  0.48981  Biso   1.000  H 
  H489     1.0000 0.56295  0.41582  0.56766  Biso   1.000  H 
  H490     1.0000 0.51685  0.36788  0.54970  Biso   1.000  H 
  H491     1.0000 0.90047  0.02849  0.46386  Biso   1.000  H 
  H492     1.0000 0.91024  0.04522  0.40125  Biso   1.000  H 
  H493     1.0000 0.54087  0.41139  0.50528  Biso   1.000  H 
  H494     1.0000 0.87628  0.98941  0.41414  Biso   1.000  H 
  O109     1.0000 0.92810  0.63260  0.50000  Biso   1.000  O 
  C419     1.0000 0.88280  0.61720  0.50000  Biso   1.000  C 
  O110     1.0000 0.86740  0.57190  0.50000  Biso   1.000  O 
  C420     1.0000 0.84350  0.65650  0.50000  Biso   1.000  C 
  C421     1.0000 0.85530  0.70580  0.50000  Biso   1.000  C 
  C422     1.0000 0.79420  0.64470  0.50000  Biso   1.000  C 
  C423     1.0000 0.82050  0.74200  0.50000  Biso   1.000  C 
  H495     1.0000 0.88860  0.71490  0.50000  Biso   1.000  H 
  C424     1.0000 0.75800  0.67950  0.50000  Biso   1.000  C 
  H496     1.0000 0.78510  0.61140  0.50000  Biso   1.000  H 
  C425     1.0000 0.76930  0.73070  0.50000  Biso   1.000  C 
  C426     1.0000 0.73070  0.76930  0.50000  Biso   1.000  C 
  H497     1.0000 0.83050  0.77510  0.50000  Biso   1.000  H 
  C427     1.0000 0.74200  0.82050  0.50000  Biso   1.000  C 
  N39      1.0000 0.70953  0.66134  0.52633  Biso   1.000  N 
  C428     1.0000 0.67950  0.75800  0.50000  Biso   1.000  C 
  C429     1.0000 0.70580  0.85530  0.50000  Biso   1.000  C 
  N40      1.0000 0.79429  0.83957  0.51700  Biso   1.000  N 
  C430     1.0000 0.64470  0.79420  0.50000  Biso   1.000  C 
  H498     1.0000 0.66950  0.72490  0.50000  Biso   1.000  H 
  C431     1.0000 0.65650  0.84350  0.50000  Biso   1.000  C 
  C432     1.0000 0.61720  0.88280  0.50000  Biso   1.000  C 
  H499     1.0000 0.71490  0.88860  0.50000  Biso   1.000  H 
  H500     1.0000 0.61140  0.78510  0.50000  Biso   1.000  H 
  O111     1.0000 0.63260  0.92810  0.50000  Biso   1.000  O 
  O112     1.0000 0.57190  0.86740  0.50000  Biso   1.000  O 
  C433     1.0000 0.79720  0.85693  0.56981  Biso   1.000  C 
  C434     1.0000 0.68351  0.62677  0.49432  Biso   1.000  C 
  C435     1.0000 0.84456  0.88920  0.58088  Biso   1.000  C 
  C436     1.0000 0.62994  0.61730  0.51276  Biso   1.000  C 
  H501     1.0000 0.71866  0.64237  0.55986  Biso   1.000  H 
  H502     1.0000 0.80387  0.86988  0.49471  Biso   1.000  H 
  C437     1.0000 0.59036  0.64585  0.48117  Biso   1.000  C 
  H503     1.0000 0.68155  0.64247  0.45568  Biso   1.000  H 
  H504     1.0000 0.79791  0.82422  0.59510  Biso   1.000  H 
  H505     1.0000 0.57200  0.67276  0.50686  Biso   1.000  H 
  C438     1.0000 0.55000  0.61061  0.46275  Biso   1.000  C 
  H506     1.0000 0.60529  0.66764  0.45025  Biso   1.000  H 
  C439     1.0000 0.83512  0.94408  0.57473  Biso   1.000  C 
  H507     1.0000 0.81386  0.95368  0.53962  Biso   1.000  H 
  C440     1.0000 0.88320  0.97264  0.57297  Biso   1.000  C 
  H508     1.0000 0.81265  0.95733  0.60683  Biso   1.000  H 
  H509     1.0000 0.76409  0.87994  0.57875  Biso   1.000  H 
  H510     1.0000 0.70359  0.59052  0.49267  Biso   1.000  H 
  H511     1.0000 0.87531  0.87497  0.55550  Biso   1.000  H 
  H512     1.0000 0.85697  0.88424  0.61998  Biso   1.000  H 
  H513     1.0000 0.62616  0.62746  0.55290  Biso   1.000  H 
  H514     1.0000 0.62167  0.57559  0.51035  Biso   1.000  H 
  H515     1.0000 0.56234  0.58408  0.43250  Biso   1.000  H 
  H516     1.0000 0.51659  0.63221  0.45088  Biso   1.000  H 
  H517     1.0000 0.90046  0.97149  0.53613  Biso   1.000  H 
  H518     1.0000 0.91024  0.95477  0.59874  Biso   1.000  H 
  H519     1.0000 0.54101  0.58873  0.49511  Biso   1.000  H 
  H520     1.0000 0.87628  0.01058  0.58585  Biso   1.000  H 
  O113     1.0000 0.50000  0.07190  0.63260  Biso   1.000  O 
  C441     1.0000 0.50000  0.11720  0.61720  Biso   1.000  C 
  O114     1.0000 0.50000  0.13260  0.57190  Biso   1.000  O 
  C442     1.0000 0.50000  0.15650  0.65650  Biso   1.000  C 
  C443     1.0000 0.50000  0.14470  0.70580  Biso   1.000  C 
  C444     1.0000 0.50000  0.20580  0.64470  Biso   1.000  C 
  C445     1.0000 0.50000  0.17950  0.74200  Biso   1.000  C 
  H521     1.0000 0.50000  0.11140  0.71490  Biso   1.000  H 
  C446     1.0000 0.50000  0.24200  0.67950  Biso   1.000  C 
  H522     1.0000 0.50000  0.21490  0.61140  Biso   1.000  H 
  C447     1.0000 0.50000  0.23070  0.73070  Biso   1.000  C 
  C448     1.0000 0.50000  0.26930  0.76930  Biso   1.000  C 
  H523     1.0000 0.50000  0.16950  0.77510  Biso   1.000  H 
  C449     1.0000 0.50000  0.25800  0.82050  Biso   1.000  C 
  N41      1.0000 0.52311  0.28943  0.66109  Biso   1.000  N 
  C450     1.0000 0.50000  0.32050  0.75800  Biso   1.000  C 
  C451     1.0000 0.50000  0.29420  0.85530  Biso   1.000  C 
  N42      1.0000 0.47771  0.20817  0.83872  Biso   1.000  N 
  C452     1.0000 0.50000  0.35530  0.79420  Biso   1.000  C 
  H524     1.0000 0.50000  0.33050  0.72490  Biso   1.000  H 
  C453     1.0000 0.50000  0.34350  0.84350  Biso   1.000  C 
  C454     1.0000 0.50000  0.38280  0.88280  Biso   1.000  C 
  H525     1.0000 0.50000  0.28510  0.88860  Biso   1.000  H 
  H526     1.0000 0.50000  0.38860  0.78510  Biso   1.000  H 
  O115     1.0000 0.50000  0.36740  0.92810  Biso   1.000  O 
  O116     1.0000 0.50000  0.42810  0.86740  Biso   1.000  O 
  C455     1.0000 0.42246  0.21106  0.83956  Biso   1.000  C 
  C456     1.0000 0.57380  0.27581  0.64412  Biso   1.000  C 
  C457     1.0000 0.39656  0.16146  0.84848  Biso   1.000  C 
  C458     1.0000 0.60662  0.32060  0.65049  Biso   1.000  C 
  H527     1.0000 0.50007  0.30608  0.63593  Biso   1.000  H 
  H528     1.0000 0.49097  0.20137  0.87414  Biso   1.000  H 
  C459     1.0000 0.62264  0.32393  0.70612  Biso   1.000  C 
  H529     1.0000 0.59011  0.24238  0.66273  Biso   1.000  H 
  H530     1.0000 0.40882  0.22534  0.80280  Biso   1.000  H 
  H531     1.0000 0.59259  0.31107  0.72893  Biso   1.000  H 
  C460     1.0000 0.63515  0.37710  0.72043  Biso   1.000  C 
  H532     1.0000 0.65479  0.29838  0.70908  Biso   1.000  H 
  C461     1.0000 0.39198  0.15501  0.90547  Biso   1.000  C 
  H533     1.0000 0.42672  0.16706  0.92622  Biso   1.000  H 
  C462     1.0000 0.38199  0.10185  0.91955  Biso   1.000  C 
  H534     1.0000 0.36082  0.17837  0.92039  Biso   1.000  H 
  H535     1.0000 0.41089  0.23789  0.86874  Biso   1.000  H 
  H536     1.0000 0.57019  0.26304  0.60378  Biso   1.000  H 
  H537     1.0000 0.41704  0.13063  0.82890  Biso   1.000  H 
  H538     1.0000 0.35835  0.16362  0.83242  Biso   1.000  H 
  H539     1.0000 0.58777  0.35849  0.64092  Biso   1.000  H 
  H540     1.0000 0.64010  0.31093  0.62858  Biso   1.000  H 
  H541     1.0000 0.60840  0.40524  0.70651  Biso   1.000  H 
  H542     1.0000 0.67231  0.38559  0.70623  Biso   1.000  H 
  H543     1.0000 0.41671  0.07851  0.91245  Biso   1.000  H 
  H544     1.0000 0.34925  0.08960  0.89830  Biso   1.000  H 
  H545     1.0000 0.63525  0.37919  0.75958  Biso   1.000  H 
  H546     1.0000 0.37241  0.09836  0.96012  Biso   1.000  H 
  O117     1.0000 0.50000  0.07190  0.36740  Biso   1.000  O 
  C463     1.0000 0.50000  0.11720  0.38280  Biso   1.000  C 
  O118     1.0000 0.50000  0.13260  0.42810  Biso   1.000  O 
  C464     1.0000 0.50000  0.15650  0.34350  Biso   1.000  C 
  C465     1.0000 0.50000  0.14470  0.29420  Biso   1.000  C 
  C466     1.0000 0.50000  0.20580  0.35530  Biso   1.000  C 
  C467     1.0000 0.50000  0.17950  0.25800  Biso   1.000  C 
  H547     1.0000 0.50000  0.11140  0.28510  Biso   1.000  H 
  C468     1.0000 0.50000  0.24200  0.32050  Biso   1.000  C 
  H548     1.0000 0.50000  0.21490  0.38860  Biso   1.000  H 
  C469     1.0000 0.50000  0.23070  0.26930  Biso   1.000  C 
  C470     1.0000 0.50000  0.26930  0.23070  Biso   1.000  C 
  H549     1.0000 0.50000  0.16950  0.22490  Biso   1.000  H 
  C471     1.0000 0.50000  0.25800  0.17950  Biso   1.000  C 
  N43      1.0000 0.47692  0.28947  0.33889  Biso   1.000  N 
  C472     1.0000 0.50000  0.32050  0.24200  Biso   1.000  C 
  C473     1.0000 0.50000  0.29420  0.14470  Biso   1.000  C 
  N44      1.0000 0.52229  0.20817  0.16127  Biso   1.000  N 
  C474     1.0000 0.50000  0.35530  0.20580  Biso   1.000  C 
  H550     1.0000 0.50000  0.33050  0.27510  Biso   1.000  H 
  C475     1.0000 0.50000  0.34350  0.15650  Biso   1.000  C 
  C476     1.0000 0.50000  0.38280  0.11720  Biso   1.000  C 
  H551     1.0000 0.50000  0.28510  0.11140  Biso   1.000  H 
  H552     1.0000 0.50000  0.38860  0.21490  Biso   1.000  H 
  O119     1.0000 0.50000  0.36740  0.07190  Biso   1.000  O 
  O120     1.0000 0.50000  0.42810  0.13260  Biso   1.000  O 
  C477     1.0000 0.57754  0.21106  0.16044  Biso   1.000  C 
  C478     1.0000 0.42617  0.27596  0.35575  Biso   1.000  C 
  C479     1.0000 0.60344  0.16146  0.15152  Biso   1.000  C 
  C480     1.0000 0.39336  0.32078  0.34915  Biso   1.000  C 
  H553     1.0000 0.49994  0.30612  0.36406  Biso   1.000  H 
  H554     1.0000 0.50903  0.20137  0.12586  Biso   1.000  H 
  C481     1.0000 0.37719  0.32387  0.29357  Biso   1.000  C 
  H555     1.0000 0.40989  0.24249  0.33722  Biso   1.000  H 
  H556     1.0000 0.59118  0.22533  0.19720  Biso   1.000  H 
  H557     1.0000 0.40732  0.31113  0.27079  Biso   1.000  H 
  C482     1.0000 0.36417  0.37697  0.27917  Biso   1.000  C 
  H558     1.0000 0.34520  0.29816  0.29067  Biso   1.000  H 
  C483     1.0000 0.60802  0.15501  0.09454  Biso   1.000  C 
  H559     1.0000 0.57329  0.16706  0.07378  Biso   1.000  H 
  C484     1.0000 0.61799  0.10185  0.08045  Biso   1.000  C 
  H560     1.0000 0.63918  0.17836  0.07962  Biso   1.000  H 
  H561     1.0000 0.58912  0.23789  0.13126  Biso   1.000  H 
  H562     1.0000 0.42970  0.26330  0.39614  Biso   1.000  H 
  H563     1.0000 0.58296  0.13063  0.17110  Biso   1.000  H 
  H564     1.0000 0.64165  0.16362  0.16758  Biso   1.000  H 
  H565     1.0000 0.41220  0.35875  0.35841  Biso   1.000  H 
  H566     1.0000 0.35990  0.31126  0.37115  Biso   1.000  H 
  H567     1.0000 0.39118  0.40521  0.29238  Biso   1.000  H 
  H568     1.0000 0.32733  0.38542  0.29420  Biso   1.000  H 
  H569     1.0000 0.58327  0.07851  0.08756  Biso   1.000  H 
  H570     1.0000 0.65073  0.08959  0.10170  Biso   1.000  H 
  H571     1.0000 0.36300  0.37897  0.24004  Biso   1.000  H 
  H572     1.0000 0.62757  0.09836  0.03988  Biso   1.000  H 
  O121     1.0000 0.50000  0.92810  0.36740  Biso   1.000  O 
  C485     1.0000 0.50000  0.88280  0.38280  Biso   1.000  C 
  O122     1.0000 0.50000  0.86740  0.42810  Biso   1.000  O 
  C486     1.0000 0.50000  0.84350  0.34350  Biso   1.000  C 
  C487     1.0000 0.50000  0.85530  0.29420  Biso   1.000  C 
  C488     1.0000 0.50000  0.79420  0.35530  Biso   1.000  C 
  C489     1.0000 0.50000  0.82050  0.25800  Biso   1.000  C 
  H573     1.0000 0.50000  0.88860  0.28510  Biso   1.000  H 
  C490     1.0000 0.50000  0.75800  0.32050  Biso   1.000  C 
  H574     1.0000 0.50000  0.78510  0.38860  Biso   1.000  H 
  C491     1.0000 0.50000  0.76930  0.26930  Biso   1.000  C 
  C492     1.0000 0.50000  0.73070  0.23070  Biso   1.000  C 
  H575     1.0000 0.50000  0.83050  0.22490  Biso   1.000  H 
  C493     1.0000 0.50000  0.74200  0.17950  Biso   1.000  C 
  N45      1.0000 0.52309  0.71054  0.33889  Biso   1.000  N 
  C494     1.0000 0.50000  0.67950  0.24200  Biso   1.000  C 
  C495     1.0000 0.50000  0.70580  0.14470  Biso   1.000  C 
  N46      1.0000 0.47771  0.79183  0.16127  Biso   1.000  N 
  C496     1.0000 0.50000  0.64470  0.20580  Biso   1.000  C 
  H576     1.0000 0.50000  0.66950  0.27510  Biso   1.000  H 
  C497     1.0000 0.50000  0.65650  0.15650  Biso   1.000  C 
  C498     1.0000 0.50000  0.61720  0.11720  Biso   1.000  C 
  H577     1.0000 0.50000  0.71490  0.11140  Biso   1.000  H 
  H578     1.0000 0.50000  0.61140  0.21490  Biso   1.000  H 
  O123     1.0000 0.50000  0.63260  0.07190  Biso   1.000  O 
  O124     1.0000 0.50000  0.57190  0.13260  Biso   1.000  O 
  C499     1.0000 0.42246  0.78894  0.16045  Biso   1.000  C 
  C500     1.0000 0.57379  0.72409  0.35582  Biso   1.000  C 
  C501     1.0000 0.39656  0.83854  0.15152  Biso   1.000  C 
  C502     1.0000 0.60664  0.67932  0.34921  Biso   1.000  C 
  H579     1.0000 0.50004  0.69386  0.36402  Biso   1.000  H 
  H580     1.0000 0.49097  0.79863  0.12586  Biso   1.000  H 
  C503     1.0000 0.62280  0.67625  0.29362  Biso   1.000  C 
  H581     1.0000 0.59009  0.75758  0.33736  Biso   1.000  H 
  H582     1.0000 0.40882  0.77467  0.19721  Biso   1.000  H 
  H583     1.0000 0.59274  0.68912  0.27082  Biso   1.000  H 
  C504     1.0000 0.63564  0.62316  0.27919  Biso   1.000  C 
  H584     1.0000 0.65489  0.70185  0.29078  Biso   1.000  H 
  C505     1.0000 0.39198  0.84498  0.09454  Biso   1.000  C 
  H585     1.0000 0.42671  0.83293  0.07378  Biso   1.000  H 
  C506     1.0000 0.38200  0.89814  0.08044  Biso   1.000  C 
  H586     1.0000 0.36081  0.82164  0.07962  Biso   1.000  H 
  H587     1.0000 0.41088  0.76210  0.13127  Biso   1.000  H 
  H588     1.0000 0.57021  0.73669  0.39623  Biso   1.000  H 
  H589     1.0000 0.41704  0.86937  0.17109  Biso   1.000  H 
  H590     1.0000 0.35835  0.83638  0.16758  Biso   1.000  H 
  H591     1.0000 0.58784  0.64134  0.35852  Biso   1.000  H 
  H592     1.0000 0.64012  0.68888  0.37117  Biso   1.000  H 
  H593     1.0000 0.60843  0.59516  0.29243  Biso   1.000  H 
  H594     1.0000 0.67244  0.61447  0.29420  Biso   1.000  H 
  H595     1.0000 0.41673  0.92148  0.08754  Biso   1.000  H 
  H596     1.0000 0.34927  0.91041  0.10171  Biso   1.000  H 
  H597     1.0000 0.63673  0.62114  0.24005  Biso   1.000  H 
  H598     1.0000 0.37242  0.90164  0.03988  Biso   1.000  H 
  O125     1.0000 0.50000  0.92810  0.63260  Biso   1.000  O 
  C507     1.0000 0.50000  0.88280  0.61720  Biso   1.000  C 
  O126     1.0000 0.50000  0.86740  0.57190  Biso   1.000  O 
  C508     1.0000 0.50000  0.84350  0.65650  Biso   1.000  C 
  C509     1.0000 0.50000  0.85530  0.70580  Biso   1.000  C 
  C510     1.0000 0.50000  0.79420  0.64470  Biso   1.000  C 
  C511     1.0000 0.50000  0.82050  0.74200  Biso   1.000  C 
  H599     1.0000 0.50000  0.88860  0.71490  Biso   1.000  H 
  C512     1.0000 0.50000  0.75800  0.67950  Biso   1.000  C 
  H600     1.0000 0.50000  0.78510  0.61140  Biso   1.000  H 
  C513     1.0000 0.50000  0.76930  0.73070  Biso   1.000  C 
  C514     1.0000 0.50000  0.73070  0.76930  Biso   1.000  C 
  H601     1.0000 0.50000  0.83050  0.77510  Biso   1.000  H 
  C515     1.0000 0.50000  0.74200  0.82050  Biso   1.000  C 
  N47      1.0000 0.47689  0.71057  0.66109  Biso   1.000  N 
  C516     1.0000 0.50000  0.67950  0.75800  Biso   1.000  C 
  C517     1.0000 0.50000  0.70580  0.85530  Biso   1.000  C 
  N48      1.0000 0.52229  0.79183  0.83873  Biso   1.000  N 
  C518     1.0000 0.50000  0.64470  0.79420  Biso   1.000  C 
  H602     1.0000 0.50000  0.66950  0.72490  Biso   1.000  H 
  C519     1.0000 0.50000  0.65650  0.84350  Biso   1.000  C 
  C520     1.0000 0.50000  0.61720  0.88280  Biso   1.000  C 
  H603     1.0000 0.50000  0.71490  0.88860  Biso   1.000  H 
  H604     1.0000 0.50000  0.61140  0.78510  Biso   1.000  H 
  O127     1.0000 0.50000  0.63260  0.92810  Biso   1.000  O 
  O128     1.0000 0.50000  0.57190  0.86740  Biso   1.000  O 
  C521     1.0000 0.57754  0.78894  0.83956  Biso   1.000  C 
  C522     1.0000 0.42623  0.72420  0.64408  Biso   1.000  C 
  C523     1.0000 0.60344  0.83854  0.84849  Biso   1.000  C 
  C524     1.0000 0.39337  0.67945  0.65052  Biso   1.000  C 
  H605     1.0000 0.49995  0.69389  0.63598  Biso   1.000  H 
  H606     1.0000 0.50903  0.79864  0.87414  Biso   1.000  H 
  C525     1.0000 0.37732  0.67620  0.70615  Biso   1.000  C 
  H607     1.0000 0.40991  0.75766  0.66261  Biso   1.000  H 
  H608     1.0000 0.59118  0.77466  0.80280  Biso   1.000  H 
  H609     1.0000 0.40733  0.68916  0.72897  Biso   1.000  H 
  C526     1.0000 0.36485  0.62305  0.72051  Biso   1.000  C 
  H610     1.0000 0.34511  0.70168  0.70904  Biso   1.000  H 
  C527     1.0000 0.60802  0.84499  0.90547  Biso   1.000  C 
  H611     1.0000 0.57328  0.83294  0.92622  Biso   1.000  H 
  C528     1.0000 0.61800  0.89814  0.91955  Biso   1.000  C 
  H612     1.0000 0.63918  0.82163  0.92039  Biso   1.000  H 
  H613     1.0000 0.58911  0.76211  0.86874  Biso   1.000  H 
  H614     1.0000 0.42987  0.73688  0.60371  Biso   1.000  H 
  H615     1.0000 0.58296  0.86937  0.82891  Biso   1.000  H 
  H616     1.0000 0.64165  0.83638  0.83242  Biso   1.000  H 
  H617     1.0000 0.41218  0.64153  0.64099  Biso   1.000  H 
  H618     1.0000 0.35988  0.68912  0.62863  Biso   1.000  H 
  H619     1.0000 0.39186  0.59511  0.70673  Biso   1.000  H 
  H620     1.0000 0.32782  0.61435  0.70612  Biso   1.000  H 
  H621     1.0000 0.58329  0.92149  0.91245  Biso   1.000  H 
  H622     1.0000 0.65074  0.91040  0.89830  Biso   1.000  H 
  H623     1.0000 0.36455  0.62096  0.75966  Biso   1.000  H 
  H624     1.0000 0.62759  0.90164  0.96012  Biso   1.000  H 
