data_image0
_cell_length_a       20.7004
_cell_length_b       20.7004
_cell_length_c       20.7004
_cell_angle_alpha    90
_cell_angle_beta     90
_cell_angle_gamma    90

_symmetry_space_group_name_H-M    "P 1"
_symmetry_int_tables_number       1

loop_
  _symmetry_equiv_pos_as_xyz
  'x, y, z'

loop_
  _atom_site_label
  _atom_site_occupancy
  _atom_site_fract_x
  _atom_site_fract_y
  _atom_site_fract_z
  _atom_site_thermal_displace_type
  _atom_site_B_iso_or_equiv
  _atom_site_type_symbol
  Zr1      1.0000 0.11989  0.00000  0.00000  Biso   1.000  Zr
  Zr2      1.0000 0.11989  0.50000  0.50000  Biso   1.000  Zr
  Zr3      1.0000 0.61989  0.00000  0.50000  Biso   1.000  Zr
  Zr4      1.0000 0.61989  0.50000  0.00000  Biso   1.000  Zr
  Zr5      1.0000 0.88011  0.00000  0.00000  Biso   1.000  Zr
  Zr6      1.0000 0.88011  0.50000  0.50000  Biso   1.000  Zr
  Zr7      1.0000 0.38011  0.00000  0.50000  Biso   1.000  Zr
  Zr8      1.0000 0.38011  0.50000  0.00000  Biso   1.000  Zr
  Zr9      1.0000 0.00000  0.11989  0.00000  Biso   1.000  Zr
  Zr10     1.0000 0.00000  0.61989  0.50000  Biso   1.000  Zr
  Zr11     1.0000 0.50000  0.11989  0.50000  Biso   1.000  Zr
  Zr12     1.0000 0.50000  0.61989  0.00000  Biso   1.000  Zr
  Zr13     1.0000 0.00000  0.88011  0.00000  Biso   1.000  Zr
  Zr14     1.0000 0.00000  0.38011  0.50000  Biso   1.000  Zr
  Zr15     1.0000 0.50000  0.88011  0.50000  Biso   1.000  Zr
  Zr16     1.0000 0.50000  0.38011  0.00000  Biso   1.000  Zr
  Zr17     1.0000 0.00000  0.00000  0.11989  Biso   1.000  Zr
  Zr18     1.0000 0.00000  0.50000  0.61989  Biso   1.000  Zr
  Zr19     1.0000 0.50000  0.00000  0.61989  Biso   1.000  Zr
  Zr20     1.0000 0.50000  0.50000  0.11989  Biso   1.000  Zr
  Zr21     1.0000 0.00000  0.00000  0.88011  Biso   1.000  Zr
  Zr22     1.0000 0.00000  0.50000  0.38011  Biso   1.000  Zr
  Zr23     1.0000 0.50000  0.00000  0.38011  Biso   1.000  Zr
  Zr24     1.0000 0.50000  0.50000  0.88011  Biso   1.000  Zr
  O1       1.0000 0.05610  0.44390  0.44390  Biso   1.000  O 
  O2       1.0000 0.55610  0.94390  0.44390  Biso   1.000  O 
  O3       1.0000 0.55610  0.44390  0.94390  Biso   1.000  O 
  O4       1.0000 0.44390  0.05610  0.44390  Biso   1.000  O 
  O5       1.0000 0.44390  0.55610  0.94390  Biso   1.000  O 
  O6       1.0000 0.94390  0.94390  0.05610  Biso   1.000  O 
  O7       1.0000 0.94390  0.44390  0.55610  Biso   1.000  O 
  O8       1.0000 0.05610  0.05610  0.05610  Biso   1.000  O 
  O9       1.0000 0.55610  0.55610  0.05610  Biso   1.000  O 
  O10      1.0000 0.94390  0.05610  0.05610  Biso   1.000  O 
  O11      1.0000 0.94390  0.55610  0.55610  Biso   1.000  O 
  O12      1.0000 0.44390  0.05610  0.55610  Biso   1.000  O 
  O13      1.0000 0.44390  0.55610  0.05610  Biso   1.000  O 
  O14      1.0000 0.05610  0.94390  0.05610  Biso   1.000  O 
  O15      1.0000 0.05610  0.44390  0.55610  Biso   1.000  O 
  O16      1.0000 0.55610  0.94390  0.55610  Biso   1.000  O 
  O17      1.0000 0.55610  0.44390  0.05610  Biso   1.000  O 
  O18      1.0000 0.94390  0.94390  0.94390  Biso   1.000  O 
  O19      1.0000 0.94390  0.44390  0.44390  Biso   1.000  O 
  O20      1.0000 0.44390  0.94390  0.44390  Biso   1.000  O 
  O21      1.0000 0.44390  0.44390  0.94390  Biso   1.000  O 
  O22      1.0000 0.05610  0.05610  0.94390  Biso   1.000  O 
  O23      1.0000 0.05610  0.55610  0.44390  Biso   1.000  O 
  O24      1.0000 0.55610  0.05610  0.44390  Biso   1.000  O 
  C1       1.0000 0.15360  0.00000  0.84640  Biso   1.000  C 
  O25      1.0000 0.17046  0.00000  0.90471  Biso   1.000  O 
  O26      1.0000 0.09529  0.00000  0.82954  Biso   1.000  O 
  C2       1.0000 0.20500  0.00000  0.79500  Biso   1.000  C 
  C3       1.0000 0.18437  0.00000  0.73249  Biso   1.000  C 
  N1       1.0000 0.11064  0.98044  0.71351  Biso   1.000  N 
  H1       1.0000 0.22128  0.00000  0.63051  Biso   1.000  H 
  C4       1.0000 0.23249  0.00000  0.68442  Biso   1.000  C 
  C5       1.0000 0.29500  0.00000  0.70500  Biso   1.000  C 
  C6       1.0000 0.31558  0.00000  0.76751  Biso   1.000  C 
  C7       1.0000 0.26751  0.00000  0.81563  Biso   1.000  C 
  H2       1.0000 0.27872  0.00000  0.86954  Biso   1.000  H 
  H3       1.0000 0.36949  0.00000  0.77872  Biso   1.000  H 
  O27      1.0000 0.40470  0.00000  0.67046  Biso   1.000  O 
  C8       1.0000 0.34640  0.00000  0.65360  Biso   1.000  C 
  O28      1.0000 0.32954  0.00000  0.59529  Biso   1.000  O 
  H4       1.0000 0.10824  0.93236  0.69742  Biso   1.000  H 
  C9       1.0000 0.04007  0.00806  0.72098  Biso   1.000  C 
  H5       1.0000 0.05161  0.04957  0.74940  Biso   1.000  H 
  H6       1.0000 0.01355  0.97164  0.74773  Biso   1.000  H 
  C10      1.0000 0.97710  0.04259  0.67400  Biso   1.000  C 
  C11      1.0000 0.92362  0.04071  0.61530  Biso   1.000  C 
  C12      1.0000 0.02483  0.07442  0.63578  Biso   1.000  C 
  C13      1.0000 0.92044  0.07426  0.72131  Biso   1.000  C 
  H7       1.0000 0.90552  0.08853  0.60245  Biso   1.000  H 
  H8       1.0000 0.88320  0.01142  0.62829  Biso   1.000  H 
  H9       1.0000 0.94035  0.02491  0.57146  Biso   1.000  H 
  H10      1.0000 0.03118  0.03932  0.60173  Biso   1.000  H 
  H11      1.0000 0.07115  0.09184  0.65343  Biso   1.000  H 
  H12      1.0000 0.00174  0.11540  0.61732  Biso   1.000  H 
  H13      1.0000 0.91863  0.10495  0.76513  Biso   1.000  H 
  H14      1.0000 0.87353  0.09275  0.69993  Biso   1.000  H 
  H15      1.0000 0.92082  0.03106  0.73809  Biso   1.000  H 
  C14      1.0000 0.15360  0.50000  0.34640  Biso   1.000  C 
  O29      1.0000 0.17046  0.50000  0.40471  Biso   1.000  O 
  O30      1.0000 0.09529  0.50000  0.32954  Biso   1.000  O 
  C15      1.0000 0.20500  0.50000  0.29500  Biso   1.000  C 
  C16      1.0000 0.18437  0.50000  0.23249  Biso   1.000  C 
  N2       1.0000 0.11122  0.48027  0.21310  Biso   1.000  N 
  H16      1.0000 0.22128  0.50000  0.13051  Biso   1.000  H 
  C17      1.0000 0.23249  0.50000  0.18442  Biso   1.000  C 
  C18      1.0000 0.29500  0.50000  0.20500  Biso   1.000  C 
  C19      1.0000 0.31558  0.50000  0.26751  Biso   1.000  C 
  C20      1.0000 0.26751  0.50000  0.31563  Biso   1.000  C 
  H17      1.0000 0.27872  0.50000  0.36954  Biso   1.000  H 
  H18      1.0000 0.36949  0.50000  0.27872  Biso   1.000  H 
  O31      1.0000 0.40470  0.50000  0.17046  Biso   1.000  O 
  C21      1.0000 0.34640  0.50000  0.15360  Biso   1.000  C 
  O32      1.0000 0.32954  0.50000  0.09529  Biso   1.000  O 
  H19      1.0000 0.10953  0.43266  0.19563  Biso   1.000  H 
  C22      1.0000 0.04005  0.50673  0.21973  Biso   1.000  C 
  H20      1.0000 0.04941  0.54826  0.24926  Biso   1.000  H 
  H21      1.0000 0.01418  0.46941  0.24563  Biso   1.000  H 
  C23      1.0000 0.97782  0.54255  0.17335  Biso   1.000  C 
  C24      1.0000 0.92512  0.54103  0.11484  Biso   1.000  C 
  C25      1.0000 0.02627  0.57484  0.13651  Biso   1.000  C 
  C26      1.0000 0.92105  0.57337  0.22052  Biso   1.000  C 
  H22      1.0000 0.90740  0.58883  0.10203  Biso   1.000  H 
  H23      1.0000 0.88397  0.51206  0.12682  Biso   1.000  H 
  H24      1.0000 0.94199  0.52514  0.07125  Biso   1.000  H 
  H25      1.0000 0.03326  0.53966  0.10211  Biso   1.000  H 
  H26      1.0000 0.07296  0.59138  0.15438  Biso   1.000  H 
  H27      1.0000 0.00355  0.61575  0.11714  Biso   1.000  H 
  H28      1.0000 0.91983  0.60395  0.26457  Biso   1.000  H 
  H29      1.0000 0.87394  0.59150  0.19998  Biso   1.000  H 
  H30      1.0000 0.92185  0.53020  0.23792  Biso   1.000  H 
  C27      1.0000 0.65360  0.00000  0.34640  Biso   1.000  C 
  O33      1.0000 0.67046  0.00000  0.40471  Biso   1.000  O 
  O34      1.0000 0.59529  0.00000  0.32954  Biso   1.000  O 
  C28      1.0000 0.70500  0.00000  0.29500  Biso   1.000  C 
  C29      1.0000 0.68437  0.00000  0.23249  Biso   1.000  C 
  N3       1.0000 0.61140  0.98042  0.21268  Biso   1.000  N 
  H31      1.0000 0.72128  0.00000  0.13051  Biso   1.000  H 
  C30      1.0000 0.73248  0.00000  0.18442  Biso   1.000  C 
  C31      1.0000 0.79499  0.00000  0.20500  Biso   1.000  C 
  C32      1.0000 0.81558  0.00000  0.26751  Biso   1.000  C 
  C33      1.0000 0.76751  0.00000  0.31563  Biso   1.000  C 
  H32      1.0000 0.77872  0.00000  0.36954  Biso   1.000  H 
  H33      1.0000 0.86949  0.00000  0.27872  Biso   1.000  H 
  O35      1.0000 0.90470  0.00000  0.17046  Biso   1.000  O 
  C34      1.0000 0.84639  0.00000  0.15360  Biso   1.000  C 
  O36      1.0000 0.82953  0.00000  0.09529  Biso   1.000  O 
  H34      1.0000 0.60977  0.93233  0.19597  Biso   1.000  H 
  C35      1.0000 0.53995  0.00644  0.21903  Biso   1.000  C 
  H35      1.0000 0.54844  0.04778  0.24882  Biso   1.000  H 
  H36      1.0000 0.51463  0.96883  0.24475  Biso   1.000  H 
  C36      1.0000 0.47772  0.04275  0.17307  Biso   1.000  C 
  C37      1.0000 0.42508  0.04120  0.11442  Biso   1.000  C 
  C38      1.0000 0.52624  0.07551  0.13642  Biso   1.000  C 
  C39      1.0000 0.42096  0.07350  0.21969  Biso   1.000  C 
  H37      1.0000 0.40723  0.08931  0.10200  Biso   1.000  H 
  H38      1.0000 0.38387  0.01177  0.12603  Biso   1.000  H 
  H39      1.0000 0.44229  0.02576  0.07124  Biso   1.000  H 
  H40      1.0000 0.53315  0.04065  0.10207  Biso   1.000  H 
  H41      1.0000 0.57269  0.09142  0.15516  Biso   1.000  H 
  H42      1.0000 0.50405  0.11596  0.11642  Biso   1.000  H 
  H43      1.0000 0.42036  0.10398  0.26379  Biso   1.000  H 
  H44      1.0000 0.37364  0.09107  0.20004  Biso   1.000  H 
  H45      1.0000 0.42223  0.03048  0.23799  Biso   1.000  H 
  C40      1.0000 0.65360  0.50000  0.84640  Biso   1.000  C 
  O37      1.0000 0.67046  0.50000  0.90471  Biso   1.000  O 
  O38      1.0000 0.59529  0.50000  0.82954  Biso   1.000  O 
  C41      1.0000 0.70500  0.50000  0.79500  Biso   1.000  C 
  C42      1.0000 0.68437  0.50000  0.73249  Biso   1.000  C 
  N4       1.0000 0.61110  0.48037  0.71316  Biso   1.000  N 
  H46      1.0000 0.72128  0.50000  0.63051  Biso   1.000  H 
  C43      1.0000 0.73248  0.50000  0.68442  Biso   1.000  C 
  C44      1.0000 0.79499  0.50000  0.70500  Biso   1.000  C 
  C45      1.0000 0.81558  0.50000  0.76751  Biso   1.000  C 
  C46      1.0000 0.76751  0.50000  0.81563  Biso   1.000  C 
  H47      1.0000 0.77872  0.50000  0.86954  Biso   1.000  H 
  H48      1.0000 0.86949  0.50000  0.77872  Biso   1.000  H 
  O39      1.0000 0.90470  0.50000  0.67046  Biso   1.000  O 
  C47      1.0000 0.84639  0.50000  0.65360  Biso   1.000  C 
  O40      1.0000 0.82953  0.50000  0.59529  Biso   1.000  O 
  H49      1.0000 0.60928  0.43271  0.69589  Biso   1.000  H 
  C48      1.0000 0.53996  0.50693  0.71990  Biso   1.000  C 
  H50      1.0000 0.54950  0.54827  0.74953  Biso   1.000  H 
  H51      1.0000 0.51417  0.46961  0.74584  Biso   1.000  H 
  C49      1.0000 0.47766  0.54263  0.67340  Biso   1.000  C 
  C50      1.0000 0.42485  0.54100  0.61488  Biso   1.000  C 
  C51      1.0000 0.52600  0.57476  0.63633  Biso   1.000  C 
  C52      1.0000 0.42089  0.57358  0.72054  Biso   1.000  C 
  H52      1.0000 0.40703  0.58882  0.60198  Biso   1.000  H 
  H53      1.0000 0.38383  0.51194  0.62697  Biso   1.000  H 
  H54      1.0000 0.44163  0.52510  0.57122  Biso   1.000  H 
  H55      1.0000 0.53297  0.53957  0.60191  Biso   1.000  H 
  H56      1.0000 0.57272  0.59135  0.65412  Biso   1.000  H 
  H57      1.0000 0.50329  0.61574  0.61690  Biso   1.000  H 
  H58      1.0000 0.41970  0.60421  0.76451  Biso   1.000  H 
  H59      1.0000 0.37377  0.59166  0.69995  Biso   1.000  H 
  H60      1.0000 0.42169  0.53041  0.73790  Biso   1.000  H 
  C53      1.0000 0.84640  0.00000  0.84640  Biso   1.000  C 
  O41      1.0000 0.82954  0.00000  0.90471  Biso   1.000  O 
  O42      1.0000 0.90471  0.00000  0.82954  Biso   1.000  O 
  C54      1.0000 0.79500  0.00000  0.79500  Biso   1.000  C 
  C55      1.0000 0.81563  0.00000  0.73249  Biso   1.000  C 
  N5       1.0000 0.86800  0.94576  0.71231  Biso   1.000  N 
  H61      1.0000 0.77872  0.00000  0.63051  Biso   1.000  H 
  C56      1.0000 0.76752  0.00000  0.68442  Biso   1.000  C 
  C57      1.0000 0.70501  0.00000  0.70500  Biso   1.000  C 
  C58      1.0000 0.68442  0.00000  0.76751  Biso   1.000  C 
  C59      1.0000 0.73249  0.00000  0.81563  Biso   1.000  C 
  H62      1.0000 0.72128  0.00000  0.86954  Biso   1.000  H 
  H63      1.0000 0.63051  0.00000  0.77872  Biso   1.000  H 
  O43      1.0000 0.59530  0.00000  0.67046  Biso   1.000  O 
  C60      1.0000 0.65361  0.00000  0.65360  Biso   1.000  C 
  O44      1.0000 0.67047  0.00000  0.59529  Biso   1.000  O 
  H64      1.0000 0.87512  0.91795  0.75302  Biso   1.000  H 
  C61      1.0000 0.85965  0.89454  0.65501  Biso   1.000  C 
  H65      1.0000 0.80871  0.89178  0.63755  Biso   1.000  H 
  H66      1.0000 0.87175  0.84837  0.67518  Biso   1.000  H 
  C62      1.0000 0.91425  0.89279  0.59102  Biso   1.000  C 
  C63      1.0000 0.88098  0.93163  0.53232  Biso   1.000  C 
  C64      1.0000 0.94145  0.83376  0.55614  Biso   1.000  C 
  C65      1.0000 0.97801  0.91714  0.61536  Biso   1.000  C 
  H67      1.0000 0.86286  0.90240  0.49016  Biso   1.000  H 
  H68      1.0000 0.91755  0.96284  0.50712  Biso   1.000  H 
  H69      1.0000 0.84282  0.96406  0.55322  Biso   1.000  H 
  H70      1.0000 0.93765  0.83684  0.50445  Biso   1.000  H 
  H71      1.0000 0.92066  0.79155  0.57964  Biso   1.000  H 
  H72      1.0000 0.99532  0.82534  0.55308  Biso   1.000  H 
  H73      1.0000 0.01676  0.88299  0.62715  Biso   1.000  H 
  H74      1.0000 0.00003  0.95165  0.58584  Biso   1.000  H 
  H75      1.0000 0.96640  0.93867  0.65726  Biso   1.000  H 
  C66      1.0000 0.84640  0.50000  0.34640  Biso   1.000  C 
  O45      1.0000 0.82954  0.50000  0.40471  Biso   1.000  O 
  O46      1.0000 0.90471  0.50000  0.32954  Biso   1.000  O 
  C67      1.0000 0.79500  0.50000  0.29500  Biso   1.000  C 
  C68      1.0000 0.81563  0.50000  0.23249  Biso   1.000  C 
  N6       1.0000 0.86808  0.44629  0.21189  Biso   1.000  N 
  H76      1.0000 0.77872  0.50000  0.13051  Biso   1.000  H 
  C69      1.0000 0.76752  0.50000  0.18442  Biso   1.000  C 
  C70      1.0000 0.70501  0.50000  0.20500  Biso   1.000  C 
  C71      1.0000 0.68442  0.50000  0.26751  Biso   1.000  C 
  C72      1.0000 0.73249  0.50000  0.31563  Biso   1.000  C 
  H77      1.0000 0.72128  0.50000  0.36954  Biso   1.000  H 
  H78      1.0000 0.63051  0.50000  0.27872  Biso   1.000  H 
  O47      1.0000 0.59530  0.50000  0.17046  Biso   1.000  O 
  C73      1.0000 0.65361  0.50000  0.15360  Biso   1.000  C 
  O48      1.0000 0.67047  0.50000  0.09529  Biso   1.000  O 
  H79      1.0000 0.87471  0.41793  0.25229  Biso   1.000  H 
  C74      1.0000 0.85890  0.39553  0.15392  Biso   1.000  C 
  H80      1.0000 0.80828  0.39385  0.13524  Biso   1.000  H 
  H81      1.0000 0.86988  0.34893  0.17360  Biso   1.000  H 
  C75      1.0000 0.91410  0.39325  0.09024  Biso   1.000  C 
  C76      1.0000 0.88196  0.43257  0.03136  Biso   1.000  C 
  C77      1.0000 0.94168  0.33411  0.05547  Biso   1.000  C 
  C78      1.0000 0.97794  0.41698  0.11579  Biso   1.000  C 
  H82      1.0000 0.86298  0.40409  0.98900  Biso   1.000  H 
  H83      1.0000 0.91950  0.46299  0.00621  Biso   1.000  H 
  H84      1.0000 0.84438  0.46562  0.05214  Biso   1.000  H 
  H85      1.0000 0.93755  0.33720  0.00363  Biso   1.000  H 
  H86      1.0000 0.92086  0.29210  0.07943  Biso   1.000  H 
  H87      1.0000 0.99546  0.32503  0.05289  Biso   1.000  H 
  H88      1.0000 0.01624  0.38251  0.12800  Biso   1.000  H 
  H89      1.0000 0.00025  0.45236  0.08600  Biso   1.000  H 
  H90      1.0000 0.96484  0.43854  0.15738  Biso   1.000  H 
  C79      1.0000 0.34640  0.00000  0.34640  Biso   1.000  C 
  O49      1.0000 0.32954  0.00000  0.40471  Biso   1.000  O 
  O50      1.0000 0.40471  0.00000  0.32954  Biso   1.000  O 
  C80      1.0000 0.29500  0.00000  0.29500  Biso   1.000  C 
  C81      1.0000 0.31563  0.00000  0.23249  Biso   1.000  C 
  N7       1.0000 0.36820  0.94660  0.21173  Biso   1.000  N 
  H91      1.0000 0.27872  0.00000  0.13051  Biso   1.000  H 
  C82      1.0000 0.26751  0.00000  0.18442  Biso   1.000  C 
  C83      1.0000 0.20500  0.00000  0.20500  Biso   1.000  C 
  C84      1.0000 0.18442  0.00000  0.26751  Biso   1.000  C 
  C85      1.0000 0.23249  0.00000  0.31563  Biso   1.000  C 
  H92      1.0000 0.22128  0.00000  0.36954  Biso   1.000  H 
  H93      1.0000 0.13051  0.00000  0.27872  Biso   1.000  H 
  O51      1.0000 0.09530  0.00000  0.17046  Biso   1.000  O 
  C86      1.0000 0.15360  0.00000  0.15360  Biso   1.000  C 
  O52      1.0000 0.17046  0.00000  0.09529  Biso   1.000  O 
  H94      1.0000 0.37420  0.91793  0.25199  Biso   1.000  H 
  C87      1.0000 0.35855  0.89608  0.15307  Biso   1.000  C 
  H95      1.0000 0.30825  0.89542  0.13331  Biso   1.000  H 
  H96      1.0000 0.36864  0.84923  0.17260  Biso   1.000  H 
  C88      1.0000 0.41417  0.89329  0.08956  Biso   1.000  C 
  C89      1.0000 0.38266  0.93284  0.03025  Biso   1.000  C 
  C90      1.0000 0.44232  0.83437  0.05470  Biso   1.000  C 
  C91      1.0000 0.47794  0.91709  0.11611  Biso   1.000  C 
  H97      1.0000 0.36311  0.90470  0.98832  Biso   1.000  H 
  H98      1.0000 0.42070  0.96283  0.00446  Biso   1.000  H 
  H99      1.0000 0.34552  0.96603  0.05082  Biso   1.000  H 
  H100     1.0000 0.43790  0.83736  0.00261  Biso   1.000  H 
  H101     1.0000 0.42129  0.79229  0.07892  Biso   1.000  H 
  H102     1.0000 0.49587  0.82521  0.05307  Biso   1.000  H 
  H103     1.0000 0.51616  0.88287  0.12844  Biso   1.000  H 
  H104     1.0000 0.50014  0.95303  0.08634  Biso   1.000  H 
  H105     1.0000 0.46389  0.93834  0.15748  Biso   1.000  H 
  C92      1.0000 0.34640  0.50000  0.84640  Biso   1.000  C 
  O53      1.0000 0.32954  0.50000  0.90471  Biso   1.000  O 
  O54      1.0000 0.40471  0.50000  0.82954  Biso   1.000  O 
  C93      1.0000 0.29500  0.50000  0.79500  Biso   1.000  C 
  C94      1.0000 0.31563  0.50000  0.73249  Biso   1.000  C 
  N8       1.0000 0.36803  0.44621  0.71197  Biso   1.000  N 
  H106     1.0000 0.27872  0.50000  0.63051  Biso   1.000  H 
  C95      1.0000 0.26751  0.50000  0.68442  Biso   1.000  C 
  C96      1.0000 0.20500  0.50000  0.70500  Biso   1.000  C 
  C97      1.0000 0.18442  0.50000  0.76751  Biso   1.000  C 
  C98      1.0000 0.23249  0.50000  0.81563  Biso   1.000  C 
  H107     1.0000 0.22128  0.50000  0.86954  Biso   1.000  H 
  H108     1.0000 0.13051  0.50000  0.77872  Biso   1.000  H 
  O55      1.0000 0.09530  0.50000  0.67046  Biso   1.000  O 
  C99      1.0000 0.15360  0.50000  0.65360  Biso   1.000  C 
  O56      1.0000 0.17046  0.50000  0.59529  Biso   1.000  O 
  H109     1.0000 0.37461  0.41790  0.75244  Biso   1.000  H 
  C100     1.0000 0.35892  0.39540  0.65411  Biso   1.000  C 
  H110     1.0000 0.30827  0.39378  0.63548  Biso   1.000  H 
  H111     1.0000 0.36988  0.34880  0.67388  Biso   1.000  H 
  C101     1.0000 0.41412  0.39312  0.59032  Biso   1.000  C 
  C102     1.0000 0.38187  0.43234  0.53149  Biso   1.000  C 
  C103     1.0000 0.44179  0.33399  0.55558  Biso   1.000  C 
  C104     1.0000 0.47790  0.41705  0.61581  Biso   1.000  C 
  H112     1.0000 0.36317  0.40355  0.48914  Biso   1.000  H 
  H113     1.0000 0.41914  0.46313  0.50638  Biso   1.000  H 
  H114     1.0000 0.34409  0.46515  0.55226  Biso   1.000  H 
  H115     1.0000 0.43774  0.33710  0.50372  Biso   1.000  H 
  H116     1.0000 0.42102  0.29185  0.57929  Biso   1.000  H 
  H117     1.0000 0.49562  0.32511  0.55295  Biso   1.000  H 
  H118     1.0000 0.51632  0.38271  0.62799  Biso   1.000  H 
  H119     1.0000 0.50012  0.45232  0.58593  Biso   1.000  H 
  H120     1.0000 0.46497  0.43861  0.65730  Biso   1.000  H 
  C105     1.0000 0.84640  0.15360  0.00000  Biso   1.000  C 
  O57      1.0000 0.90471  0.17046  0.00000  Biso   1.000  O 
  O58      1.0000 0.82954  0.09529  0.00000  Biso   1.000  O 
  C106     1.0000 0.79500  0.20500  0.00000  Biso   1.000  C 
  C107     1.0000 0.73249  0.18437  0.00000  Biso   1.000  C 
  N9       1.0000 0.71276  0.11141  0.97985  Biso   1.000  N 
  H121     1.0000 0.63051  0.22128  0.00000  Biso   1.000  H 
  C108     1.0000 0.68442  0.23249  0.00000  Biso   1.000  C 
  C109     1.0000 0.70500  0.29500  0.00000  Biso   1.000  C 
  C110     1.0000 0.76751  0.31558  0.00000  Biso   1.000  C 
  C111     1.0000 0.81563  0.26751  0.00000  Biso   1.000  C 
  H122     1.0000 0.86954  0.27872  0.00000  Biso   1.000  H 
  H123     1.0000 0.77872  0.36949  0.00000  Biso   1.000  H 
  O59      1.0000 0.67046  0.40470  0.00000  Biso   1.000  O 
  C112     1.0000 0.65360  0.34640  0.00000  Biso   1.000  C 
  O60      1.0000 0.59529  0.32954  0.00000  Biso   1.000  O 
  H124     1.0000 0.69822  0.11040  0.93091  Biso   1.000  H 
  C113     1.0000 0.71985  0.04061  0.00644  Biso   1.000  C 
  H125     1.0000 0.75034  0.04876  0.04687  Biso   1.000  H 
  H126     1.0000 0.74550  0.01451  0.96914  Biso   1.000  H 
  C114     1.0000 0.67382  0.97822  0.04228  Biso   1.000  C 
  C115     1.0000 0.61467  0.92470  0.04128  Biso   1.000  C 
  C116     1.0000 0.63651  0.02635  0.07464  Biso   1.000  C 
  C117     1.0000 0.72055  0.92114  0.07339  Biso   1.000  C 
  H127     1.0000 0.60208  0.90761  0.08892  Biso   1.000  H 
  H128     1.0000 0.62698  0.88356  0.01270  Biso   1.000  H 
  H129     1.0000 0.57087  0.94137  0.02579  Biso   1.000  H 
  H130     1.0000 0.60182  0.03280  0.04091  Biso   1.000  H 
  H131     1.0000 0.65518  0.07271  0.09094  Biso   1.000  H 
  H132     1.0000 0.61815  0.00372  0.11586  Biso   1.000  H 
  H133     1.0000 0.76474  0.92034  0.10314  Biso   1.000  H 
  H134     1.0000 0.69974  0.87430  0.09182  Biso   1.000  H 
  H135     1.0000 0.73764  0.92178  0.02988  Biso   1.000  H 
  C118     1.0000 0.84640  0.65360  0.50000  Biso   1.000  C 
  O61      1.0000 0.90471  0.67046  0.50000  Biso   1.000  O 
  O62      1.0000 0.82954  0.59529  0.50000  Biso   1.000  O 
  C119     1.0000 0.79500  0.70500  0.50000  Biso   1.000  C 
  C120     1.0000 0.73249  0.68437  0.50000  Biso   1.000  C 
  N10      1.0000 0.71290  0.61131  0.48032  Biso   1.000  N 
  H136     1.0000 0.63051  0.72128  0.50000  Biso   1.000  H 
  C121     1.0000 0.68442  0.73248  0.50000  Biso   1.000  C 
  C122     1.0000 0.70500  0.79499  0.50000  Biso   1.000  C 
  C123     1.0000 0.76751  0.81558  0.50000  Biso   1.000  C 
  C124     1.0000 0.81563  0.76751  0.50000  Biso   1.000  C 
  H137     1.0000 0.86954  0.77872  0.50000  Biso   1.000  H 
  H138     1.0000 0.77872  0.86949  0.50000  Biso   1.000  H 
  O63      1.0000 0.67046  0.90470  0.50000  Biso   1.000  O 
  C125     1.0000 0.65360  0.84639  0.50000  Biso   1.000  C 
  O64      1.0000 0.59529  0.82953  0.50000  Biso   1.000  O 
  H139     1.0000 0.69616  0.60978  0.43234  Biso   1.000  H 
  C126     1.0000 0.71952  0.54000  0.50656  Biso   1.000  C 
  H140     1.0000 0.74954  0.54870  0.54774  Biso   1.000  H 
  H141     1.0000 0.74519  0.51438  0.46904  Biso   1.000  H 
  C127     1.0000 0.67332  0.47784  0.54258  Biso   1.000  C 
  C128     1.0000 0.61464  0.42506  0.54114  Biso   1.000  C 
  C129     1.0000 0.63651  0.52626  0.57496  Biso   1.000  C 
  C130     1.0000 0.72021  0.42099  0.57341  Biso   1.000  C 
  H142     1.0000 0.60196  0.40748  0.58905  Biso   1.000  H 
  H143     1.0000 0.62645  0.38383  0.51214  Biso   1.000  H 
  H144     1.0000 0.57122  0.44188  0.52543  Biso   1.000  H 
  H145     1.0000 0.60202  0.53318  0.54012  Biso   1.000  H 
  H146     1.0000 0.65460  0.57299  0.59104  Biso   1.000  H 
  H147     1.0000 0.61696  0.50372  0.61593  Biso   1.000  H 
  H148     1.0000 0.76428  0.42009  0.60384  Biso   1.000  H 
  H149     1.0000 0.69996  0.37374  0.59130  Biso   1.000  H 
  H150     1.0000 0.73790  0.42201  0.53027  Biso   1.000  H 
  C131     1.0000 0.34640  0.15360  0.50000  Biso   1.000  C 
  O65      1.0000 0.40471  0.17046  0.50000  Biso   1.000  O 
  O66      1.0000 0.32954  0.09529  0.50000  Biso   1.000  O 
  C132     1.0000 0.29500  0.20500  0.50000  Biso   1.000  C 
  C133     1.0000 0.23249  0.18437  0.50000  Biso   1.000  C 
  N11      1.0000 0.21284  0.11132  0.48067  Biso   1.000  N 
  H151     1.0000 0.13051  0.22128  0.50000  Biso   1.000  H 
  C134     1.0000 0.18442  0.23249  0.50000  Biso   1.000  C 
  C135     1.0000 0.20500  0.29500  0.50000  Biso   1.000  C 
  C136     1.0000 0.26751  0.31558  0.50000  Biso   1.000  C 
  C137     1.0000 0.31563  0.26751  0.50000  Biso   1.000  C 
  H152     1.0000 0.36954  0.27872  0.50000  Biso   1.000  H 
  H153     1.0000 0.27872  0.36949  0.50000  Biso   1.000  H 
  O67      1.0000 0.17046  0.40470  0.50000  Biso   1.000  O 
  C138     1.0000 0.15360  0.34640  0.50000  Biso   1.000  C 
  O68      1.0000 0.09529  0.32954  0.50000  Biso   1.000  O 
  H154     1.0000 0.19484  0.10921  0.43327  Biso   1.000  H 
  C139     1.0000 0.21903  0.03989  0.50673  Biso   1.000  C 
  H155     1.0000 0.24839  0.04960  0.54829  Biso   1.000  H 
  H156     1.0000 0.24483  0.01446  0.46944  Biso   1.000  H 
  C140     1.0000 0.17284  0.97748  0.54283  Biso   1.000  C 
  C141     1.0000 0.11464  0.92507  0.54079  Biso   1.000  C 
  C142     1.0000 0.13612  0.02589  0.57568  Biso   1.000  C 
  C143     1.0000 0.21990  0.92092  0.57344  Biso   1.000  C 
  H157     1.0000 0.10207  0.90661  0.58865  Biso   1.000  H 
  H158     1.0000 0.12651  0.88420  0.51115  Biso   1.000  H 
  H159     1.0000 0.07119  0.94275  0.52536  Biso   1.000  H 
  H160     1.0000 0.10206  0.03302  0.54012  Biso   1.000  H 
  H161     1.0000 0.15508  0.07215  0.59258  Biso   1.000  H 
  H162     1.0000 0.11570  0.00344  0.61554  Biso   1.000  H 
  H163     1.0000 0.26409  0.92005  0.60417  Biso   1.000  H 
  H164     1.0000 0.19999  0.87377  0.59122  Biso   1.000  H 
  H165     1.0000 0.23792  0.92188  0.53045  Biso   1.000  H 
  C144     1.0000 0.34640  0.65360  0.00000  Biso   1.000  C 
  O69      1.0000 0.40471  0.67046  0.00000  Biso   1.000  O 
  O70      1.0000 0.32954  0.59529  0.00000  Biso   1.000  O 
  C145     1.0000 0.29500  0.70500  0.00000  Biso   1.000  C 
  C146     1.0000 0.23249  0.68437  0.00000  Biso   1.000  C 
  N12      1.0000 0.21291  0.61138  0.98017  Biso   1.000  N 
  H166     1.0000 0.13051  0.72128  0.00000  Biso   1.000  H 
  C147     1.0000 0.18442  0.73248  0.00000  Biso   1.000  C 
  C148     1.0000 0.20500  0.79499  0.00000  Biso   1.000  C 
  C149     1.0000 0.26751  0.81558  0.00000  Biso   1.000  C 
  C150     1.0000 0.31563  0.76751  0.00000  Biso   1.000  C 
  H167     1.0000 0.36954  0.77872  0.00000  Biso   1.000  H 
  H168     1.0000 0.27872  0.86949  0.00000  Biso   1.000  H 
  O71      1.0000 0.17046  0.90470  0.00000  Biso   1.000  O 
  C151     1.0000 0.15360  0.84639  0.00000  Biso   1.000  C 
  O72      1.0000 0.09529  0.82953  0.00000  Biso   1.000  O 
  H169     1.0000 0.19608  0.61005  0.93219  Biso   1.000  H 
  C152     1.0000 0.21949  0.54013  0.00640  Biso   1.000  C 
  H170     1.0000 0.24946  0.54866  0.04767  Biso   1.000  H 
  H171     1.0000 0.24516  0.51431  0.96886  Biso   1.000  H 
  C153     1.0000 0.17334  0.47805  0.04247  Biso   1.000  C 
  C154     1.0000 0.11463  0.42527  0.04120  Biso   1.000  C 
  C155     1.0000 0.13669  0.52654  0.07494  Biso   1.000  C 
  C156     1.0000 0.22032  0.42115  0.07323  Biso   1.000  C 
  H172     1.0000 0.10202  0.40782  0.08903  Biso   1.000  H 
  H173     1.0000 0.12643  0.38397  0.01232  Biso   1.000  H 
  H174     1.0000 0.07122  0.44212  0.02549  Biso   1.000  H 
  H175     1.0000 0.10220  0.53341  0.04015  Biso   1.000  H 
  H176     1.0000 0.15485  0.57327  0.09102  Biso   1.000  H 
  H177     1.0000 0.11737  0.50395  0.11594  Biso   1.000  H 
  H178     1.0000 0.26444  0.42019  0.10357  Biso   1.000  H 
  H179     1.0000 0.19994  0.37400  0.09126  Biso   1.000  H 
  H180     1.0000 0.23791  0.42208  0.03004  Biso   1.000  H 
  C157     1.0000 0.84640  0.84640  0.00000  Biso   1.000  C 
  O73      1.0000 0.90471  0.82954  0.00000  Biso   1.000  O 
  O74      1.0000 0.82954  0.90471  0.00000  Biso   1.000  O 
  C158     1.0000 0.79500  0.79500  0.00000  Biso   1.000  C 
  C159     1.0000 0.73249  0.81563  0.00000  Biso   1.000  C 
  N13      1.0000 0.71184  0.86815  0.94621  Biso   1.000  N 
  H181     1.0000 0.63051  0.77872  0.00000  Biso   1.000  H 
  C160     1.0000 0.68442  0.76752  0.00000  Biso   1.000  C 
  C161     1.0000 0.70500  0.70501  0.00000  Biso   1.000  C 
  C162     1.0000 0.76751  0.68442  0.00000  Biso   1.000  C 
  C163     1.0000 0.81563  0.73249  0.00000  Biso   1.000  C 
  H182     1.0000 0.86954  0.72128  0.00000  Biso   1.000  H 
  H183     1.0000 0.77872  0.63051  0.00000  Biso   1.000  H 
  O75      1.0000 0.67046  0.59530  0.00000  Biso   1.000  O 
  C164     1.0000 0.65360  0.65361  0.00000  Biso   1.000  C 
  O76      1.0000 0.59529  0.67047  0.00000  Biso   1.000  O 
  H184     1.0000 0.75220  0.87445  0.91776  Biso   1.000  H 
  C165     1.0000 0.65369  0.85859  0.89548  Biso   1.000  C 
  H185     1.0000 0.63518  0.80777  0.89394  Biso   1.000  H 
  H186     1.0000 0.67332  0.86919  0.84892  Biso   1.000  H 
  C166     1.0000 0.59009  0.91461  0.89297  Biso   1.000  C 
  C167     1.0000 0.53127  0.88231  0.93240  Biso   1.000  C 
  C168     1.0000 0.55475  0.94221  0.83454  Biso   1.000  C 
  C169     1.0000 0.61573  0.97833  0.91668  Biso   1.000  C 
  H187     1.0000 0.48980  0.86258  0.90462  Biso   1.000  H 
  H188     1.0000 0.50604  0.92015  0.96211  Biso   1.000  H 
  H189     1.0000 0.55262  0.84542  0.96608  Biso   1.000  H 
  H190     1.0000 0.50290  0.93727  0.83719  Biso   1.000  H 
  H191     1.0000 0.57876  0.92129  0.79277  Biso   1.000  H 
  H192     1.0000 0.55160  0.99595  0.82483  Biso   1.000  H 
  H193     1.0000 0.62820  0.01707  0.88299  Biso   1.000  H 
  H194     1.0000 0.58642  0.00078  0.95267  Biso   1.000  H 
  H195     1.0000 0.65742  0.96402  0.93829  Biso   1.000  H 
  C170     1.0000 0.84640  0.34640  0.50000  Biso   1.000  C 
  O77      1.0000 0.90471  0.32954  0.50000  Biso   1.000  O 
  O78      1.0000 0.82954  0.40471  0.50000  Biso   1.000  O 
  C171     1.0000 0.79500  0.29500  0.50000  Biso   1.000  C 
  C172     1.0000 0.73249  0.31563  0.50000  Biso   1.000  C 
  N14      1.0000 0.71184  0.36813  0.44640  Biso   1.000  N 
  H196     1.0000 0.63051  0.27872  0.50000  Biso   1.000  H 
  C173     1.0000 0.68442  0.26751  0.50000  Biso   1.000  C 
  C174     1.0000 0.70500  0.20500  0.50000  Biso   1.000  C 
  C175     1.0000 0.76751  0.18442  0.50000  Biso   1.000  C 
  C176     1.0000 0.81563  0.23249  0.50000  Biso   1.000  C 
  H197     1.0000 0.86954  0.22128  0.50000  Biso   1.000  H 
  H198     1.0000 0.77872  0.13051  0.50000  Biso   1.000  H 
  O79      1.0000 0.67046  0.09530  0.50000  Biso   1.000  O 
  C177     1.0000 0.65360  0.15360  0.50000  Biso   1.000  C 
  O80      1.0000 0.59529  0.17046  0.50000  Biso   1.000  O 
  H199     1.0000 0.75218  0.37439  0.41789  Biso   1.000  H 
  C178     1.0000 0.65359  0.35868  0.39575  Biso   1.000  C 
  H200     1.0000 0.63452  0.30812  0.39452  Biso   1.000  H 
  H201     1.0000 0.67318  0.36926  0.34905  Biso   1.000  H 
  C179     1.0000 0.58992  0.41423  0.39318  Biso   1.000  C 
  C180     1.0000 0.53090  0.38231  0.43259  Biso   1.000  C 
  C181     1.0000 0.55511  0.44207  0.33420  Biso   1.000  C 
  C182     1.0000 0.61588  0.47801  0.41696  Biso   1.000  C 
  H202     1.0000 0.48883  0.36310  0.40426  Biso   1.000  H 
  H203     1.0000 0.50567  0.42002  0.46287  Biso   1.000  H 
  H204     1.0000 0.55173  0.34496  0.46579  Biso   1.000  H 
  H205     1.0000 0.50318  0.43768  0.33720  Biso   1.000  H 
  H206     1.0000 0.57908  0.42124  0.29216  Biso   1.000  H 
  H207     1.0000 0.55268  0.49585  0.32497  Biso   1.000  H 
  H208     1.0000 0.62825  0.51631  0.38273  Biso   1.000  H 
  H209     1.0000 0.58609  0.50027  0.45267  Biso   1.000  H 
  H210     1.0000 0.65729  0.46428  0.43848  Biso   1.000  H 
  C183     1.0000 0.34640  0.84640  0.50000  Biso   1.000  C 
  O81      1.0000 0.40471  0.82954  0.50000  Biso   1.000  O 
  O82      1.0000 0.32954  0.90471  0.50000  Biso   1.000  O 
  C184     1.0000 0.29500  0.79500  0.50000  Biso   1.000  C 
  C185     1.0000 0.23249  0.81563  0.50000  Biso   1.000  C 
  N15      1.0000 0.21186  0.86800  0.44643  Biso   1.000  N 
  H211     1.0000 0.13051  0.77872  0.50000  Biso   1.000  H 
  C186     1.0000 0.18442  0.76752  0.50000  Biso   1.000  C 
  C187     1.0000 0.20500  0.70501  0.50000  Biso   1.000  C 
  C188     1.0000 0.26751  0.68442  0.50000  Biso   1.000  C 
  C189     1.0000 0.31563  0.73249  0.50000  Biso   1.000  C 
  H212     1.0000 0.36954  0.72128  0.50000  Biso   1.000  H 
  H213     1.0000 0.27872  0.63051  0.50000  Biso   1.000  H 
  O83      1.0000 0.17046  0.59530  0.50000  Biso   1.000  O 
  C190     1.0000 0.15360  0.65361  0.50000  Biso   1.000  C 
  O84      1.0000 0.09529  0.67047  0.50000  Biso   1.000  O 
  H214     1.0000 0.25221  0.87450  0.41790  Biso   1.000  H 
  C191     1.0000 0.15345  0.85868  0.39590  Biso   1.000  C 
  H215     1.0000 0.13376  0.80850  0.39537  Biso   1.000  H 
  H216     1.0000 0.17328  0.86872  0.34908  Biso   1.000  H 
  C192     1.0000 0.08996  0.91383  0.39337  Biso   1.000  C 
  C193     1.0000 0.03090  0.88221  0.43276  Biso   1.000  C 
  C194     1.0000 0.05528  0.94188  0.33406  Biso   1.000  C 
  C195     1.0000 0.11621  0.97754  0.41717  Biso   1.000  C 
  H217     1.0000 0.98837  0.86319  0.40423  Biso   1.000  H 
  H218     1.0000 0.00502  0.91976  0.46312  Biso   1.000  H 
  H219     1.0000 0.05121  0.84442  0.46536  Biso   1.000  H 
  H220     1.0000 0.00328  0.93786  0.33727  Biso   1.000  H 
  H221     1.0000 0.07917  0.92076  0.29177  Biso   1.000  H 
  H222     1.0000 0.05390  0.99535  0.32562  Biso   1.000  H 
  H223     1.0000 0.12850  0.01586  0.38275  Biso   1.000  H 
  H224     1.0000 0.08636  0.99992  0.45258  Biso   1.000  H 
  H225     1.0000 0.15760  0.96452  0.43829  Biso   1.000  H 
  C196     1.0000 0.34640  0.34640  0.00000  Biso   1.000  C 
  O85      1.0000 0.40471  0.32954  0.00000  Biso   1.000  O 
  O86      1.0000 0.32954  0.40471  0.00000  Biso   1.000  O 
  C197     1.0000 0.29500  0.29500  0.00000  Biso   1.000  C 
  C198     1.0000 0.23249  0.31563  0.00000  Biso   1.000  C 
  N16      1.0000 0.21180  0.36818  0.94641  Biso   1.000  N 
  H226     1.0000 0.13051  0.27872  0.00000  Biso   1.000  H 
  C199     1.0000 0.18442  0.26751  0.00000  Biso   1.000  C 
  C200     1.0000 0.20500  0.20500  0.00000  Biso   1.000  C 
  C201     1.0000 0.26751  0.18442  0.00000  Biso   1.000  C 
  C202     1.0000 0.31563  0.23249  0.00000  Biso   1.000  C 
  H227     1.0000 0.36954  0.22128  0.00000  Biso   1.000  H 
  H228     1.0000 0.27872  0.13051  0.00000  Biso   1.000  H 
  O87      1.0000 0.17046  0.09530  0.00000  Biso   1.000  O 
  C203     1.0000 0.15360  0.15360  0.00000  Biso   1.000  C 
  O88      1.0000 0.09529  0.17046  0.00000  Biso   1.000  O 
  H229     1.0000 0.25211  0.37455  0.91789  Biso   1.000  H 
  C204     1.0000 0.15358  0.35872  0.89576  Biso   1.000  C 
  H230     1.0000 0.13467  0.30813  0.89429  Biso   1.000  H 
  H231     1.0000 0.17311  0.36947  0.84909  Biso   1.000  H 
  C205     1.0000 0.08997  0.41424  0.89324  Biso   1.000  C 
  C206     1.0000 0.03100  0.38228  0.93271  Biso   1.000  C 
  C207     1.0000 0.05504  0.44195  0.83431  Biso   1.000  C 
  C208     1.0000 0.11583  0.47807  0.91689  Biso   1.000  C 
  H232     1.0000 0.98894  0.36286  0.90462  Biso   1.000  H 
  H233     1.0000 0.00577  0.42017  0.96271  Biso   1.000  H 
  H234     1.0000 0.05191  0.34507  0.96609  Biso   1.000  H 
  H235     1.0000 0.00313  0.43746  0.83731  Biso   1.000  H 
  H236     1.0000 0.07921  0.42105  0.79243  Biso   1.000  H 
  H237     1.0000 0.05252  0.49571  0.82483  Biso   1.000  H 
  H238     1.0000 0.12818  0.51632  0.88259  Biso   1.000  H 
  H239     1.0000 0.08623  0.50046  0.95264  Biso   1.000  H 
  H240     1.0000 0.15739  0.46419  0.93841  Biso   1.000  H 
  C209     1.0000 0.00000  0.84640  0.15360  Biso   1.000  C 
  O89      1.0000 0.00000  0.90471  0.17046  Biso   1.000  O 
  O90      1.0000 0.00000  0.82954  0.09529  Biso   1.000  O 
  C210     1.0000 0.00000  0.79500  0.20500  Biso   1.000  C 
  C211     1.0000 0.00000  0.73249  0.18437  Biso   1.000  C 
  N17      1.0000 0.98012  0.71308  0.11127  Biso   1.000  N 
  H241     1.0000 0.00000  0.63051  0.22128  Biso   1.000  H 
  C212     1.0000 0.00000  0.68442  0.23249  Biso   1.000  C 
  C213     1.0000 0.00000  0.70500  0.29500  Biso   1.000  C 
  C214     1.0000 0.00000  0.76751  0.31558  Biso   1.000  C 
  C215     1.0000 0.00000  0.81563  0.26751  Biso   1.000  C 
  H242     1.0000 0.00000  0.86954  0.27872  Biso   1.000  H 
  H243     1.0000 0.00000  0.77872  0.36949  Biso   1.000  H 
  O91      1.0000 0.00000  0.67046  0.40470  Biso   1.000  O 
  C216     1.0000 0.00000  0.65360  0.34640  Biso   1.000  C 
  O92      1.0000 0.00000  0.59529  0.32954  Biso   1.000  O 
  H244     1.0000 0.93217  0.69624  0.10983  Biso   1.000  H 
  C217     1.0000 0.00667  0.71986  0.04020  Biso   1.000  C 
  H245     1.0000 0.04793  0.74965  0.04921  Biso   1.000  H 
  H246     1.0000 0.96932  0.74567  0.01420  Biso   1.000  H 
  C218     1.0000 0.04242  0.67354  0.97794  Biso   1.000  C 
  C219     1.0000 0.04115  0.61482  0.92501  Biso   1.000  C 
  C220     1.0000 0.07470  0.63660  0.02632  Biso   1.000  C 
  C221     1.0000 0.07337  0.72062  0.92107  Biso   1.000  C 
  H247     1.0000 0.08885  0.60205  0.90752  Biso   1.000  H 
  H248     1.0000 0.01229  0.62691  0.88380  Biso   1.000  H 
  H249     1.0000 0.02534  0.57121  0.94173  Biso   1.000  H 
  H250     1.0000 0.03991  0.60210  0.03309  Biso   1.000  H 
  H251     1.0000 0.09101  0.65459  0.07305  Biso   1.000  H 
  H252     1.0000 0.11581  0.61761  0.00356  Biso   1.000  H 
  H253     1.0000 0.10373  0.76469  0.91993  Biso   1.000  H 
  H254     1.0000 0.09162  0.69991  0.87403  Biso   1.000  H 
  H255     1.0000 0.03012  0.73791  0.92182  Biso   1.000  H 
  C222     1.0000 0.00000  0.34640  0.65360  Biso   1.000  C 
  O93      1.0000 0.00000  0.40471  0.67046  Biso   1.000  O 
  O94      1.0000 0.00000  0.32954  0.59529  Biso   1.000  O 
  C223     1.0000 0.00000  0.29500  0.70500  Biso   1.000  C 
  C224     1.0000 0.00000  0.23249  0.68437  Biso   1.000  C 
  N18      1.0000 0.97952  0.21246  0.61170  Biso   1.000  N 
  H256     1.0000 0.00000  0.13051  0.72128  Biso   1.000  H 
  C225     1.0000 0.00000  0.18442  0.73248  Biso   1.000  C 
  C226     1.0000 0.00000  0.20500  0.79499  Biso   1.000  C 
  C227     1.0000 0.00000  0.26751  0.81558  Biso   1.000  C 
  C228     1.0000 0.00000  0.31563  0.76751  Biso   1.000  C 
  H257     1.0000 0.00000  0.36954  0.77872  Biso   1.000  H 
  H258     1.0000 0.00000  0.27872  0.86949  Biso   1.000  H 
  O95      1.0000 0.00000  0.17046  0.90470  Biso   1.000  O 
  C229     1.0000 0.00000  0.15360  0.84639  Biso   1.000  C 
  O96      1.0000 0.00000  0.09529  0.82953  Biso   1.000  O 
  H259     1.0000 0.93011  0.19929  0.61084  Biso   1.000  H 
  C230     1.0000 0.00589  0.21917  0.54077  Biso   1.000  C 
  H260     1.0000 0.04644  0.24987  0.54810  Biso   1.000  H 
  H261     1.0000 0.96854  0.24480  0.51469  Biso   1.000  H 
  C231     1.0000 0.04221  0.17353  0.47859  Biso   1.000  C 
  C232     1.0000 0.04157  0.11424  0.42536  Biso   1.000  C 
  C233     1.0000 0.07508  0.13677  0.52705  Biso   1.000  C 
  C234     1.0000 0.07323  0.21999  0.42135  Biso   1.000  C 
  H262     1.0000 0.08942  0.10191  0.40879  Biso   1.000  H 
  H263     1.0000 0.01314  0.12607  0.38399  Biso   1.000  H 
  H264     1.0000 0.02633  0.07059  0.44224  Biso   1.000  H 
  H265     1.0000 0.04152  0.10215  0.53377  Biso   1.000  H 
  H266     1.0000 0.09062  0.15579  0.57330  Biso   1.000  H 
  H267     1.0000 0.11615  0.11854  0.50489  Biso   1.000  H 
  H268     1.0000 0.10296  0.26416  0.42064  Biso   1.000  H 
  H269     1.0000 0.09119  0.19954  0.37450  Biso   1.000  H 
  H270     1.0000 0.02978  0.23775  0.42229  Biso   1.000  H 
  C235     1.0000 0.50000  0.84640  0.65360  Biso   1.000  C 
  O97      1.0000 0.50000  0.90471  0.67046  Biso   1.000  O 
  O98      1.0000 0.50000  0.82954  0.59529  Biso   1.000  O 
  C236     1.0000 0.50000  0.79500  0.70500  Biso   1.000  C 
  C237     1.0000 0.50000  0.73249  0.68437  Biso   1.000  C 
  N19      1.0000 0.48017  0.71300  0.61124  Biso   1.000  N 
  H271     1.0000 0.50000  0.63051  0.72128  Biso   1.000  H 
  C238     1.0000 0.50000  0.68442  0.73248  Biso   1.000  C 
  C239     1.0000 0.50000  0.70500  0.79499  Biso   1.000  C 
  C240     1.0000 0.50000  0.76751  0.81558  Biso   1.000  C 
  C241     1.0000 0.50000  0.81563  0.76751  Biso   1.000  C 
  H272     1.0000 0.50000  0.86954  0.77872  Biso   1.000  H 
  H273     1.0000 0.50000  0.77872  0.86949  Biso   1.000  H 
  O99      1.0000 0.50000  0.67046  0.90470  Biso   1.000  O 
  C242     1.0000 0.50000  0.65360  0.84639  Biso   1.000  C 
  O100     1.0000 0.50000  0.59529  0.82953  Biso   1.000  O 
  H274     1.0000 0.43202  0.69665  0.60980  Biso   1.000  H 
  C243     1.0000 0.50667  0.71987  0.54014  Biso   1.000  C 
  H275     1.0000 0.54768  0.74985  0.54888  Biso   1.000  H 
  H276     1.0000 0.46925  0.74560  0.51426  Biso   1.000  H 
  C244     1.0000 0.54249  0.67356  0.47788  Biso   1.000  C 
  C245     1.0000 0.54114  0.61478  0.42486  Biso   1.000  C 
  C246     1.0000 0.57471  0.63646  0.52618  Biso   1.000  C 
  C247     1.0000 0.57352  0.72051  0.42095  Biso   1.000  C 
  H277     1.0000 0.58894  0.60204  0.40743  Biso   1.000  H 
  H278     1.0000 0.51228  0.62687  0.38369  Biso   1.000  H 
  H279     1.0000 0.52540  0.57120  0.44151  Biso   1.000  H 
  H280     1.0000 0.54005  0.60189  0.53287  Biso   1.000  H 
  H281     1.0000 0.59088  0.65453  0.57289  Biso   1.000  H 
  H282     1.0000 0.61589  0.61737  0.50349  Biso   1.000  H 
  H283     1.0000 0.60381  0.76452  0.41996  Biso   1.000  H 
  H284     1.0000 0.59163  0.69989  0.37389  Biso   1.000  H 
  H285     1.0000 0.53023  0.73785  0.42178  Biso   1.000  H 
  C248     1.0000 0.50000  0.34640  0.15360  Biso   1.000  C 
  O101     1.0000 0.50000  0.40471  0.17046  Biso   1.000  O 
  O102     1.0000 0.50000  0.32954  0.09529  Biso   1.000  O 
  C249     1.0000 0.50000  0.29500  0.20500  Biso   1.000  C 
  C250     1.0000 0.50000  0.23249  0.18437  Biso   1.000  C 
  N20      1.0000 0.48050  0.21344  0.11079  Biso   1.000  N 
  H286     1.0000 0.50000  0.13051  0.22128  Biso   1.000  H 
  C251     1.0000 0.50000  0.18442  0.23249  Biso   1.000  C 
  C252     1.0000 0.50000  0.20500  0.29500  Biso   1.000  C 
  C253     1.0000 0.50000  0.26751  0.31558  Biso   1.000  C 
  C254     1.0000 0.50000  0.31563  0.26751  Biso   1.000  C 
  H287     1.0000 0.50000  0.36954  0.27872  Biso   1.000  H 
  H288     1.0000 0.50000  0.27872  0.36949  Biso   1.000  H 
  O103     1.0000 0.50000  0.17046  0.40470  Biso   1.000  O 
  C255     1.0000 0.50000  0.15360  0.34640  Biso   1.000  C 
  O104     1.0000 0.50000  0.09529  0.32954  Biso   1.000  O 
  H289     1.0000 0.43309  0.19603  0.10828  Biso   1.000  H 
  C256     1.0000 0.50766  0.22042  0.03992  Biso   1.000  C 
  H290     1.0000 0.54935  0.24917  0.05117  Biso   1.000  H 
  H291     1.0000 0.47100  0.24700  0.01386  Biso   1.000  H 
  C257     1.0000 0.54270  0.17347  0.97725  Biso   1.000  C 
  C258     1.0000 0.54070  0.11509  0.92439  Biso   1.000  C 
  C259     1.0000 0.57471  0.13586  0.02531  Biso   1.000  C 
  C260     1.0000 0.57392  0.22090  0.92061  Biso   1.000  C 
  H292     1.0000 0.58860  0.10203  0.90618  Biso   1.000  H 
  H293     1.0000 0.51134  0.12768  0.88378  Biso   1.000  H 
  H294     1.0000 0.52473  0.07122  0.94136  Biso   1.000  H 
  H295     1.0000 0.53918  0.10183  0.03227  Biso   1.000  H 
  H296     1.0000 0.59202  0.15355  0.07167  Biso   1.000  H 
  H297     1.0000 0.61539  0.11655  0.00257  Biso   1.000  H 
  H298     1.0000 0.60492  0.26461  0.91894  Biso   1.000  H 
  H299     1.0000 0.59211  0.19977  0.87370  Biso   1.000  H 
  H300     1.0000 0.53086  0.23802  0.92109  Biso   1.000  H 
  C261     1.0000 0.00000  0.84640  0.84640  Biso   1.000  C 
  O105     1.0000 0.00000  0.90471  0.82954  Biso   1.000  O 
  O106     1.0000 0.00000  0.82954  0.90471  Biso   1.000  O 
  C262     1.0000 0.00000  0.79500  0.79500  Biso   1.000  C 
  C263     1.0000 0.00000  0.73249  0.81563  Biso   1.000  C 
  N21      1.0000 0.94627  0.71188  0.86814  Biso   1.000  N 
  H301     1.0000 0.00000  0.63051  0.77872  Biso   1.000  H 
  C264     1.0000 0.00000  0.68442  0.76752  Biso   1.000  C 
  C265     1.0000 0.00000  0.70500  0.70501  Biso   1.000  C 
  C266     1.0000 0.00000  0.76751  0.68442  Biso   1.000  C 
  C267     1.0000 0.00000  0.81563  0.73249  Biso   1.000  C 
  H302     1.0000 0.00000  0.86954  0.72128  Biso   1.000  H 
  H303     1.0000 0.00000  0.77872  0.63051  Biso   1.000  H 
  O107     1.0000 0.00000  0.67046  0.59530  Biso   1.000  O 
  C268     1.0000 0.00000  0.65360  0.65361  Biso   1.000  C 
  O108     1.0000 0.00000  0.59529  0.67047  Biso   1.000  O 
  H304     1.0000 0.91789  0.75228  0.87466  Biso   1.000  H 
  C269     1.0000 0.89549  0.65392  0.85887  Biso   1.000  C 
  H305     1.0000 0.89372  0.63542  0.80817  Biso   1.000  H 
  H306     1.0000 0.84893  0.67357  0.86989  Biso   1.000  H 
  C270     1.0000 0.89317  0.59023  0.91424  Biso   1.000  C 
  C271     1.0000 0.93248  0.53136  0.88198  Biso   1.000  C 
  C272     1.0000 0.83421  0.55529  0.94177  Biso   1.000  C 
  C273     1.0000 0.91688  0.61571  0.97808  Biso   1.000  C 
  H307     1.0000 0.90425  0.48923  0.86279  Biso   1.000  H 
  H308     1.0000 0.96270  0.50630  0.91961  Biso   1.000  H 
  H309     1.0000 0.96581  0.55238  0.84465  Biso   1.000  H 
  H310     1.0000 0.83721  0.50348  0.93735  Biso   1.000  H 
  H311     1.0000 0.79234  0.57934  0.92093  Biso   1.000  H 
  H312     1.0000 0.82482  0.55240  0.99561  Biso   1.000  H 
  H313     1.0000 0.88257  0.62793  0.01647  Biso   1.000  H 
  H314     1.0000 0.95238  0.58606  0.00042  Biso   1.000  H 
  H315     1.0000 0.93848  0.65735  0.96465  Biso   1.000  H 
  C274     1.0000 0.00000  0.34640  0.34640  Biso   1.000  C 
  O109     1.0000 0.00000  0.40471  0.32954  Biso   1.000  O 
  O110     1.0000 0.00000  0.32954  0.40471  Biso   1.000  O 
  C275     1.0000 0.00000  0.29500  0.29500  Biso   1.000  C 
  C276     1.0000 0.00000  0.23249  0.31563  Biso   1.000  C 
  N22      1.0000 0.94659  0.21162  0.36825  Biso   1.000  N 
  H316     1.0000 0.00000  0.13051  0.27872  Biso   1.000  H 
  C277     1.0000 0.00000  0.18442  0.26751  Biso   1.000  C 
  C278     1.0000 0.00000  0.20500  0.20500  Biso   1.000  C 
  C279     1.0000 0.00000  0.26751  0.18442  Biso   1.000  C 
  C280     1.0000 0.00000  0.31563  0.23249  Biso   1.000  C 
  H317     1.0000 0.00000  0.36954  0.22128  Biso   1.000  H 
  H318     1.0000 0.00000  0.27872  0.13051  Biso   1.000  H 
  O111     1.0000 0.00000  0.17046  0.09530  Biso   1.000  O 
  C281     1.0000 0.00000  0.15360  0.15360  Biso   1.000  C 
  O112     1.0000 0.00000  0.09529  0.17046  Biso   1.000  O 
  H319     1.0000 0.91791  0.25178  0.37446  Biso   1.000  H 
  C282     1.0000 0.89608  0.15304  0.35846  Biso   1.000  C 
  H320     1.0000 0.89514  0.13357  0.30789  Biso   1.000  H 
  H321     1.0000 0.84928  0.17240  0.36858  Biso   1.000  H 
  C283     1.0000 0.89321  0.08958  0.41482  Biso   1.000  C 
  C284     1.0000 0.93301  0.03063  0.38318  Biso   1.000  C 
  C285     1.0000 0.83497  0.05403  0.44262  Biso   1.000  C 
  C286     1.0000 0.91671  0.11578  0.47860  Biso   1.000  C 
  H322     1.0000 0.90580  0.98954  0.36260  Biso   1.000  H 
  H323     1.0000 0.96207  0.00494  0.42160  Biso   1.000  H 
  H324     1.0000 0.96701  0.05200  0.34683  Biso   1.000  H 
  H325     1.0000 0.83764  0.00190  0.43752  Biso   1.000  H 
  H326     1.0000 0.79315  0.07824  0.42156  Biso   1.000  H 
  H327     1.0000 0.82465  0.05149  0.49612  Biso   1.000  H 
  H328     1.0000 0.88309  0.12865  0.51707  Biso   1.000  H 
  H329     1.0000 0.95317  0.08694  0.50137  Biso   1.000  H 
  H330     1.0000 0.93807  0.15749  0.46319  Biso   1.000  H 
  C287     1.0000 0.50000  0.84640  0.34640  Biso   1.000  C 
  O113     1.0000 0.50000  0.90471  0.32954  Biso   1.000  O 
  O114     1.0000 0.50000  0.82954  0.40471  Biso   1.000  O 
  C288     1.0000 0.50000  0.79500  0.29500  Biso   1.000  C 
  C289     1.0000 0.50000  0.73249  0.31563  Biso   1.000  C 
  N23      1.0000 0.44627  0.71190  0.36813  Biso   1.000  N 
  H331     1.0000 0.50000  0.63051  0.27872  Biso   1.000  H 
  C290     1.0000 0.50000  0.68442  0.26751  Biso   1.000  C 
  C291     1.0000 0.50000  0.70500  0.20500  Biso   1.000  C 
  C292     1.0000 0.50000  0.76751  0.18442  Biso   1.000  C 
  C293     1.0000 0.50000  0.81563  0.23249  Biso   1.000  C 
  H332     1.0000 0.50000  0.86954  0.22128  Biso   1.000  H 
  H333     1.0000 0.50000  0.77872  0.13051  Biso   1.000  H 
  O115     1.0000 0.50000  0.67046  0.09530  Biso   1.000  O 
  C294     1.0000 0.50000  0.65360  0.15360  Biso   1.000  C 
  O116     1.0000 0.50000  0.59529  0.17046  Biso   1.000  O 
  H334     1.0000 0.41785  0.75230  0.37447  Biso   1.000  H 
  C295     1.0000 0.39549  0.65388  0.35877  Biso   1.000  C 
  H335     1.0000 0.39389  0.63523  0.30806  Biso   1.000  H 
  H336     1.0000 0.34889  0.67347  0.36963  Biso   1.000  H 
  C296     1.0000 0.39308  0.59015  0.41430  Biso   1.000  C 
  C297     1.0000 0.43243  0.53123  0.38207  Biso   1.000  C 
  C298     1.0000 0.33423  0.55519  0.44199  Biso   1.000  C 
  C299     1.0000 0.41686  0.61580  0.47810  Biso   1.000  C 
  H337     1.0000 0.40412  0.48920  0.36288  Biso   1.000  H 
  H338     1.0000 0.46272  0.50617  0.41966  Biso   1.000  H 
  H339     1.0000 0.46567  0.55228  0.34473  Biso   1.000  H 
  H340     1.0000 0.33716  0.50332  0.43750  Biso   1.000  H 
  H341     1.0000 0.29231  0.57915  0.42115  Biso   1.000  H 
  H342     1.0000 0.32483  0.55231  0.49580  Biso   1.000  H 
  H343     1.0000 0.38271  0.62809  0.51651  Biso   1.000  H 
  H344     1.0000 0.45246  0.58610  0.50036  Biso   1.000  H 
  H345     1.0000 0.43850  0.65731  0.46439  Biso   1.000  H 
  C300     1.0000 0.50000  0.34640  0.84640  Biso   1.000  C 
  O117     1.0000 0.50000  0.40471  0.82954  Biso   1.000  O 
  O118     1.0000 0.50000  0.32954  0.90471  Biso   1.000  O 
  C301     1.0000 0.50000  0.29500  0.79500  Biso   1.000  C 
  C302     1.0000 0.50000  0.23249  0.81563  Biso   1.000  C 
  N24      1.0000 0.44597  0.21219  0.86784  Biso   1.000  N 
  H346     1.0000 0.50000  0.13051  0.77872  Biso   1.000  H 
  C303     1.0000 0.50000  0.18442  0.76752  Biso   1.000  C 
  C304     1.0000 0.50000  0.20500  0.70501  Biso   1.000  C 
  C305     1.0000 0.50000  0.26751  0.68442  Biso   1.000  C 
  C306     1.0000 0.50000  0.31563  0.73249  Biso   1.000  C 
  H347     1.0000 0.50000  0.36954  0.72128  Biso   1.000  H 
  H348     1.0000 0.50000  0.27872  0.63051  Biso   1.000  H 
  O119     1.0000 0.50000  0.17046  0.59530  Biso   1.000  O 
  C307     1.0000 0.50000  0.15360  0.65361  Biso   1.000  C 
  O120     1.0000 0.50000  0.09529  0.67047  Biso   1.000  O 
  H349     1.0000 0.41797  0.25279  0.87499  Biso   1.000  H 
  C308     1.0000 0.39499  0.15477  0.85937  Biso   1.000  C 
  H350     1.0000 0.39307  0.13636  0.80868  Biso   1.000  H 
  H351     1.0000 0.34855  0.17490  0.87075  Biso   1.000  H 
  C309     1.0000 0.39306  0.09083  0.91403  Biso   1.000  C 
  C310     1.0000 0.43202  0.03217  0.88132  Biso   1.000  C 
  C311     1.0000 0.33368  0.05623  0.94147  Biso   1.000  C 
  C312     1.0000 0.41718  0.11566  0.97780  Biso   1.000  C 
  H352     1.0000 0.40265  0.98946  0.86334  Biso   1.000  H 
  H353     1.0000 0.46353  0.00686  0.91786  Biso   1.000  H 
  H354     1.0000 0.46410  0.05282  0.84296  Biso   1.000  H 
  H355     1.0000 0.33695  0.00439  0.93794  Biso   1.000  H 
  H356     1.0000 0.29114  0.07940  0.92074  Biso   1.000  H 
  H357     1.0000 0.32552  0.05369  0.99528  Biso   1.000  H 
  H358     1.0000 0.38284  0.12764  0.01637  Biso   1.000  H 
  H359     1.0000 0.45201  0.08595  0.99996  Biso   1.000  H 
  H360     1.0000 0.43862  0.15728  0.96614  Biso   1.000  H 
