data_image0
_cell_length_a       26.896
_cell_length_b       26.896
_cell_length_c       26.896
_cell_angle_alpha    90
_cell_angle_beta     90
_cell_angle_gamma    90

_symmetry_space_group_name_H-M    "P 1"
_symmetry_int_tables_number       1

loop_
  _symmetry_equiv_pos_as_xyz
  'x, y, z'

loop_
  _atom_site_label
  _atom_site_occupancy
  _atom_site_fract_x
  _atom_site_fract_y
  _atom_site_fract_z
  _atom_site_thermal_displace_type
  _atom_site_B_iso_or_equiv
  _atom_site_type_symbol
  Zr1      1.0000 0.09204  0.00000  0.00000  Biso   1.000  Zr
  Zr2      1.0000 0.90796  0.00000  0.00000  Biso   1.000  Zr
  Zr3      1.0000 0.00000  0.09204  0.00000  Biso   1.000  Zr
  Zr4      1.0000 0.00000  0.90796  0.00000  Biso   1.000  Zr
  Zr5      1.0000 0.00000  0.00000  0.09204  Biso   1.000  Zr
  Zr6      1.0000 0.00000  0.00000  0.90796  Biso   1.000  Zr
  Zr7      1.0000 0.09204  0.50000  0.50000  Biso   1.000  Zr
  Zr8      1.0000 0.90796  0.50000  0.50000  Biso   1.000  Zr
  Zr9      1.0000 0.00000  0.59204  0.50000  Biso   1.000  Zr
  Zr10     1.0000 0.00000  0.40796  0.50000  Biso   1.000  Zr
  Zr11     1.0000 0.00000  0.50000  0.59204  Biso   1.000  Zr
  Zr12     1.0000 0.00000  0.50000  0.40796  Biso   1.000  Zr
  Zr13     1.0000 0.59204  0.00000  0.50000  Biso   1.000  Zr
  Zr14     1.0000 0.40796  0.00000  0.50000  Biso   1.000  Zr
  Zr15     1.0000 0.50000  0.09204  0.50000  Biso   1.000  Zr
  Zr16     1.0000 0.50000  0.90796  0.50000  Biso   1.000  Zr
  Zr17     1.0000 0.50000  0.00000  0.59204  Biso   1.000  Zr
  Zr18     1.0000 0.50000  0.00000  0.40796  Biso   1.000  Zr
  Zr19     1.0000 0.59204  0.50000  0.00000  Biso   1.000  Zr
  Zr20     1.0000 0.40796  0.50000  0.00000  Biso   1.000  Zr
  Zr21     1.0000 0.50000  0.59204  0.00000  Biso   1.000  Zr
  Zr22     1.0000 0.50000  0.40796  0.00000  Biso   1.000  Zr
  Zr23     1.0000 0.50000  0.50000  0.09204  Biso   1.000  Zr
  Zr24     1.0000 0.50000  0.50000  0.90796  Biso   1.000  Zr
  O1       1.0000 0.04540  0.04540  0.04540  Biso   1.000  O 
  O2       1.0000 0.95460  0.95460  0.04540  Biso   1.000  O 
  O3       1.0000 0.95460  0.04540  0.95460  Biso   1.000  O 
  O4       1.0000 0.04540  0.95460  0.95460  Biso   1.000  O 
  O5       1.0000 0.04540  0.04540  0.95460  Biso   1.000  O 
  O6       1.0000 0.95460  0.95460  0.95460  Biso   1.000  O 
  O7       1.0000 0.04540  0.95460  0.04540  Biso   1.000  O 
  O8       1.0000 0.95460  0.04540  0.04540  Biso   1.000  O 
  O9       1.0000 0.04540  0.54540  0.54540  Biso   1.000  O 
  O10      1.0000 0.95460  0.45460  0.54540  Biso   1.000  O 
  O11      1.0000 0.95460  0.54540  0.45460  Biso   1.000  O 
  O12      1.0000 0.04540  0.45460  0.45460  Biso   1.000  O 
  O13      1.0000 0.04540  0.54540  0.45460  Biso   1.000  O 
  O14      1.0000 0.95460  0.45460  0.45460  Biso   1.000  O 
  O15      1.0000 0.04540  0.45460  0.54540  Biso   1.000  O 
  O16      1.0000 0.95460  0.54540  0.54540  Biso   1.000  O 
  O17      1.0000 0.54540  0.04540  0.54540  Biso   1.000  O 
  O18      1.0000 0.45460  0.95460  0.54540  Biso   1.000  O 
  O19      1.0000 0.45460  0.04540  0.45460  Biso   1.000  O 
  O20      1.0000 0.54540  0.95460  0.45460  Biso   1.000  O 
  O21      1.0000 0.54540  0.04540  0.45460  Biso   1.000  O 
  O22      1.0000 0.45460  0.95460  0.45460  Biso   1.000  O 
  O23      1.0000 0.54540  0.95460  0.54540  Biso   1.000  O 
  O24      1.0000 0.45460  0.04540  0.54540  Biso   1.000  O 
  O25      1.0000 0.54540  0.54540  0.04540  Biso   1.000  O 
  O26      1.0000 0.45460  0.45460  0.04540  Biso   1.000  O 
  O27      1.0000 0.45460  0.54540  0.95460  Biso   1.000  O 
  O28      1.0000 0.54540  0.45460  0.95460  Biso   1.000  O 
  O29      1.0000 0.54540  0.54540  0.95460  Biso   1.000  O 
  O30      1.0000 0.45460  0.45460  0.95460  Biso   1.000  O 
  O31      1.0000 0.54540  0.45460  0.04540  Biso   1.000  O 
  O32      1.0000 0.45460  0.54540  0.04540  Biso   1.000  O 
  O33      1.0000 0.13260  0.00000  0.07190  Biso   1.000  O 
  C1       1.0000 0.11720  0.00000  0.11720  Biso   1.000  C 
  O34      1.0000 0.07190  0.00000  0.13260  Biso   1.000  O 
  C2       1.0000 0.15650  0.00000  0.15650  Biso   1.000  C 
  C3       1.0000 0.20580  0.00000  0.14470  Biso   1.000  C 
  C4       1.0000 0.14470  0.00000  0.20580  Biso   1.000  C 
  C5       1.0000 0.24200  0.00000  0.17950  Biso   1.000  C 
  H1       1.0000 0.21490  0.00000  0.11140  Biso   1.000  H 
  C6       1.0000 0.17950  0.00000  0.24200  Biso   1.000  C 
  O35      1.0000 0.09386  0.01256  0.21950  Biso   1.000  O 
  C7       1.0000 0.23070  0.00000  0.23070  Biso   1.000  C 
  C8       1.0000 0.26930  0.00000  0.26930  Biso   1.000  C 
  H2       1.0000 0.27510  0.00000  0.16950  Biso   1.000  H 
  C9       1.0000 0.32050  0.00000  0.25800  Biso   1.000  C 
  H3       1.0000 0.16950  0.00000  0.27510  Biso   1.000  H 
  C10      1.0000 0.25800  0.00000  0.32050  Biso   1.000  C 
  C11      1.0000 0.35530  0.00000  0.29420  Biso   1.000  C 
  H4       1.0000 0.33050  0.00000  0.22490  Biso   1.000  H 
  C12      1.0000 0.29420  0.00000  0.35530  Biso   1.000  C 
  H5       1.0000 0.22490  0.00000  0.33050  Biso   1.000  H 
  C13      1.0000 0.34350  0.00000  0.34350  Biso   1.000  C 
  C14      1.0000 0.38280  0.00000  0.38280  Biso   1.000  C 
  O36      1.0000 0.40854  0.99983  0.27874  Biso   1.000  O 
  H6       1.0000 0.28510  0.00000  0.38860  Biso   1.000  H 
  O37      1.0000 0.42810  0.00000  0.36740  Biso   1.000  O 
  O38      1.0000 0.36740  0.00000  0.42810  Biso   1.000  O 
  C15      1.0000 0.42195  0.97621  0.23358  Biso   1.000  C 
  C16      1.0000 0.06915  0.96753  0.23032  Biso   1.000  C 
  C17      1.0000 0.43309  0.01938  0.19758  Biso   1.000  C 
  H7       1.0000 0.39118  0.94970  0.21796  Biso   1.000  H 
  H8       1.0000 0.45785  0.95647  0.23927  Biso   1.000  H 
  H9       1.0000 0.42058  0.05342  0.21283  Biso   1.000  H 
  C18      1.0000 0.41083  0.00920  0.14317  Biso   1.000  C 
  H10      1.0000 0.47270  0.02486  0.19209  Biso   1.000  H 
  H11      1.0000 0.37657  0.98606  0.14644  Biso   1.000  H 
  H12      1.0000 0.43725  0.98795  0.12039  Biso   1.000  H 
  C19      1.0000 0.40234  0.05707  0.11156  Biso   1.000  C 
  C20      1.0000 0.07483  0.96077  0.28513  Biso   1.000  C 
  H13      1.0000 0.08236  0.93515  0.20778  Biso   1.000  H 
  H14      1.0000 0.02854  0.97340  0.22238  Biso   1.000  H 
  C21      1.0000 0.09332  0.91037  0.29760  Biso   1.000  C 
  H15      1.0000 0.03720  0.96402  0.30179  Biso   1.000  H 
  H16      1.0000 0.09778  0.98936  0.30279  Biso   1.000  H 
  H17      1.0000 0.06588  0.88365  0.28013  Biso   1.000  H 
  H18      1.0000 0.09294  0.90531  0.33842  Biso   1.000  H 
  C22      1.0000 0.14404  0.89521  0.27850  Biso   1.000  C 
  H19      1.0000 0.43505  0.07740  0.11090  Biso   1.000  H 
  C23      1.0000 0.38541  0.04494  0.05953  Biso   1.000  C 
  H20      1.0000 0.37223  0.07932  0.13270  Biso   1.000  H 
  H21      1.0000 0.14797  0.89799  0.23689  Biso   1.000  H 
  C24      1.0000 0.15619  0.84218  0.29328  Biso   1.000  C 
  H22      1.0000 0.17320  0.91854  0.29539  Biso   1.000  H 
  H23      1.0000 0.12922  0.81613  0.27612  Biso   1.000  H 
  H24      1.0000 0.15680  0.83843  0.33448  Biso   1.000  H 
  H25      1.0000 0.19417  0.83315  0.27816  Biso   1.000  H 
  H26      1.0000 0.41961  0.03553  0.03774  Biso   1.000  H 
  H27      1.0000 0.36510  0.07845  0.04078  Biso   1.000  H 
  H28      1.0000 0.35974  0.01390  0.05733  Biso   1.000  H 
  O39      1.0000 0.86740  0.00000  0.07190  Biso   1.000  O 
  C25      1.0000 0.88280  0.00000  0.11720  Biso   1.000  C 
  O40      1.0000 0.92810  0.00000  0.13260  Biso   1.000  O 
  C26      1.0000 0.84350  0.00000  0.15650  Biso   1.000  C 
  C27      1.0000 0.79420  0.00000  0.14470  Biso   1.000  C 
  C28      1.0000 0.85530  0.00000  0.20580  Biso   1.000  C 
  C29      1.0000 0.75800  0.00000  0.17950  Biso   1.000  C 
  H29      1.0000 0.78510  0.00000  0.11140  Biso   1.000  H 
  C30      1.0000 0.82050  0.00000  0.24200  Biso   1.000  C 
  O41      1.0000 0.90614  0.98743  0.21951  Biso   1.000  O 
  C31      1.0000 0.76930  0.00000  0.23070  Biso   1.000  C 
  C32      1.0000 0.73070  0.00000  0.26930  Biso   1.000  C 
  H30      1.0000 0.72490  0.00000  0.16950  Biso   1.000  H 
  C33      1.0000 0.67950  0.00000  0.25800  Biso   1.000  C 
  H31      1.0000 0.83050  0.00000  0.27510  Biso   1.000  H 
  C34      1.0000 0.74200  0.00000  0.32050  Biso   1.000  C 
  C35      1.0000 0.64470  0.00000  0.29420  Biso   1.000  C 
  H32      1.0000 0.66950  0.00000  0.22490  Biso   1.000  H 
  C36      1.0000 0.70580  0.00000  0.35530  Biso   1.000  C 
  H33      1.0000 0.77510  0.00000  0.33050  Biso   1.000  H 
  C37      1.0000 0.65650  0.00000  0.34350  Biso   1.000  C 
  C38      1.0000 0.61720  0.00000  0.38280  Biso   1.000  C 
  O42      1.0000 0.59146  0.00017  0.27874  Biso   1.000  O 
  H34      1.0000 0.71490  0.00000  0.38860  Biso   1.000  H 
  O43      1.0000 0.57190  0.00000  0.36740  Biso   1.000  O 
  O44      1.0000 0.63260  0.00000  0.42810  Biso   1.000  O 
  C39      1.0000 0.57805  0.02379  0.23358  Biso   1.000  C 
  C40      1.0000 0.93084  0.03247  0.23033  Biso   1.000  C 
  C41      1.0000 0.56691  0.98062  0.19758  Biso   1.000  C 
  H35      1.0000 0.60882  0.05030  0.21796  Biso   1.000  H 
  H36      1.0000 0.54215  0.04353  0.23927  Biso   1.000  H 
  H37      1.0000 0.57942  0.94658  0.21283  Biso   1.000  H 
  C42      1.0000 0.58917  0.99079  0.14317  Biso   1.000  C 
  H38      1.0000 0.52730  0.97514  0.19209  Biso   1.000  H 
  H39      1.0000 0.62343  0.01394  0.14644  Biso   1.000  H 
  H40      1.0000 0.56275  0.01204  0.12038  Biso   1.000  H 
  C43      1.0000 0.59766  0.94293  0.11156  Biso   1.000  C 
  C44      1.0000 0.92515  0.03926  0.28514  Biso   1.000  C 
  H41      1.0000 0.91764  0.06484  0.20777  Biso   1.000  H 
  H42      1.0000 0.97147  0.02660  0.22240  Biso   1.000  H 
  C45      1.0000 0.90666  0.08967  0.29758  Biso   1.000  C 
  H43      1.0000 0.96276  0.03602  0.30182  Biso   1.000  H 
  H44      1.0000 0.90219  0.01068  0.30281  Biso   1.000  H 
  H45      1.0000 0.93407  0.11638  0.28006  Biso   1.000  H 
  H46      1.0000 0.90706  0.09478  0.33840  Biso   1.000  H 
  C46      1.0000 0.85592  0.10479  0.27851  Biso   1.000  C 
  H47      1.0000 0.56495  0.92260  0.11090  Biso   1.000  H 
  C47      1.0000 0.61459  0.95506  0.05953  Biso   1.000  C 
  H48      1.0000 0.62777  0.92068  0.13271  Biso   1.000  H 
  H49      1.0000 0.85197  0.10201  0.23690  Biso   1.000  H 
  C48      1.0000 0.84372  0.15781  0.29330  Biso   1.000  C 
  H50      1.0000 0.82678  0.08144  0.29541  Biso   1.000  H 
  H51      1.0000 0.87053  0.18390  0.27594  Biso   1.000  H 
  H52      1.0000 0.84334  0.16161  0.33450  Biso   1.000  H 
  H53      1.0000 0.80563  0.16673  0.27840  Biso   1.000  H 
  H54      1.0000 0.58039  0.96449  0.03775  Biso   1.000  H 
  H55      1.0000 0.63489  0.92155  0.04078  Biso   1.000  H 
  H56      1.0000 0.64027  0.98609  0.05734  Biso   1.000  H 
  O45      1.0000 0.86740  0.00000  0.92810  Biso   1.000  O 
  C49      1.0000 0.88280  0.00000  0.88280  Biso   1.000  C 
  O46      1.0000 0.92810  0.00000  0.86740  Biso   1.000  O 
  C50      1.0000 0.84350  0.00000  0.84350  Biso   1.000  C 
  C51      1.0000 0.79420  0.00000  0.85530  Biso   1.000  C 
  C52      1.0000 0.85530  0.00000  0.79420  Biso   1.000  C 
  C53      1.0000 0.75800  0.00000  0.82050  Biso   1.000  C 
  H57      1.0000 0.78510  0.00000  0.88860  Biso   1.000  H 
  C54      1.0000 0.82050  0.00000  0.75800  Biso   1.000  C 
  O47      1.0000 0.90614  0.01256  0.78050  Biso   1.000  O 
  C55      1.0000 0.76930  0.00000  0.76930  Biso   1.000  C 
  C56      1.0000 0.73070  0.00000  0.73070  Biso   1.000  C 
  H58      1.0000 0.72490  0.00000  0.83050  Biso   1.000  H 
  C57      1.0000 0.67950  0.00000  0.74200  Biso   1.000  C 
  H59      1.0000 0.83050  0.00000  0.72490  Biso   1.000  H 
  C58      1.0000 0.74200  0.00000  0.67950  Biso   1.000  C 
  C59      1.0000 0.64470  0.00000  0.70580  Biso   1.000  C 
  H60      1.0000 0.66950  0.00000  0.77510  Biso   1.000  H 
  C60      1.0000 0.70580  0.00000  0.64470  Biso   1.000  C 
  H61      1.0000 0.77510  0.00000  0.66950  Biso   1.000  H 
  C61      1.0000 0.65650  0.00000  0.65650  Biso   1.000  C 
  C62      1.0000 0.61720  0.00000  0.61720  Biso   1.000  C 
  O48      1.0000 0.59146  0.99983  0.72126  Biso   1.000  O 
  H62      1.0000 0.71490  0.00000  0.61140  Biso   1.000  H 
  O49      1.0000 0.57190  0.00000  0.63260  Biso   1.000  O 
  O50      1.0000 0.63260  0.00000  0.57190  Biso   1.000  O 
  C63      1.0000 0.57805  0.97621  0.76642  Biso   1.000  C 
  C64      1.0000 0.93085  0.96753  0.76968  Biso   1.000  C 
  C65      1.0000 0.56691  0.01938  0.80242  Biso   1.000  C 
  H63      1.0000 0.60882  0.94970  0.78204  Biso   1.000  H 
  H64      1.0000 0.54215  0.95647  0.76073  Biso   1.000  H 
  H65      1.0000 0.57942  0.05342  0.78717  Biso   1.000  H 
  C66      1.0000 0.58917  0.00920  0.85683  Biso   1.000  C 
  H66      1.0000 0.52730  0.02486  0.80791  Biso   1.000  H 
  H67      1.0000 0.62343  0.98606  0.85356  Biso   1.000  H 
  H68      1.0000 0.56275  0.98795  0.87961  Biso   1.000  H 
  C67      1.0000 0.59766  0.05707  0.88844  Biso   1.000  C 
  C68      1.0000 0.92517  0.96077  0.71487  Biso   1.000  C 
  H69      1.0000 0.91765  0.93515  0.79223  Biso   1.000  H 
  H70      1.0000 0.97146  0.97340  0.77762  Biso   1.000  H 
  C69      1.0000 0.90668  0.91037  0.70240  Biso   1.000  C 
  H71      1.0000 0.96280  0.96402  0.69821  Biso   1.000  H 
  H72      1.0000 0.90222  0.98936  0.69721  Biso   1.000  H 
  H73      1.0000 0.93412  0.88365  0.71987  Biso   1.000  H 
  H74      1.0000 0.90706  0.90531  0.66158  Biso   1.000  H 
  C70      1.0000 0.85596  0.89522  0.72150  Biso   1.000  C 
  H75      1.0000 0.56495  0.07740  0.88911  Biso   1.000  H 
  C71      1.0000 0.61459  0.04494  0.94047  Biso   1.000  C 
  H76      1.0000 0.62777  0.07932  0.86730  Biso   1.000  H 
  H77      1.0000 0.85203  0.89799  0.76311  Biso   1.000  H 
  C72      1.0000 0.84381  0.84218  0.70672  Biso   1.000  C 
  H78      1.0000 0.82680  0.91854  0.70461  Biso   1.000  H 
  H79      1.0000 0.87078  0.81613  0.72388  Biso   1.000  H 
  H80      1.0000 0.84320  0.83843  0.66552  Biso   1.000  H 
  H81      1.0000 0.80583  0.83315  0.72184  Biso   1.000  H 
  H82      1.0000 0.58039  0.03553  0.96226  Biso   1.000  H 
  H83      1.0000 0.63490  0.07845  0.95922  Biso   1.000  H 
  H84      1.0000 0.64026  0.01390  0.94266  Biso   1.000  H 
  O51      1.0000 0.13260  0.00000  0.92810  Biso   1.000  O 
  C73      1.0000 0.11720  0.00000  0.88280  Biso   1.000  C 
  O52      1.0000 0.07190  0.00000  0.86740  Biso   1.000  O 
  C74      1.0000 0.15650  0.00000  0.84350  Biso   1.000  C 
  C75      1.0000 0.20580  0.00000  0.85530  Biso   1.000  C 
  C76      1.0000 0.14470  0.00000  0.79420  Biso   1.000  C 
  C77      1.0000 0.24200  0.00000  0.82050  Biso   1.000  C 
  H85      1.0000 0.21490  0.00000  0.88860  Biso   1.000  H 
  C78      1.0000 0.17950  0.00000  0.75800  Biso   1.000  C 
  O53      1.0000 0.09386  0.98743  0.78049  Biso   1.000  O 
  C79      1.0000 0.23070  0.00000  0.76930  Biso   1.000  C 
  C80      1.0000 0.26930  0.00000  0.73070  Biso   1.000  C 
  H86      1.0000 0.27510  0.00000  0.83050  Biso   1.000  H 
  C81      1.0000 0.32050  0.00000  0.74200  Biso   1.000  C 
  H87      1.0000 0.16950  0.00000  0.72490  Biso   1.000  H 
  C82      1.0000 0.25800  0.00000  0.67950  Biso   1.000  C 
  C83      1.0000 0.35530  0.00000  0.70580  Biso   1.000  C 
  H88      1.0000 0.33050  0.00000  0.77510  Biso   1.000  H 
  C84      1.0000 0.29420  0.00000  0.64470  Biso   1.000  C 
  H89      1.0000 0.22490  0.00000  0.66950  Biso   1.000  H 
  C85      1.0000 0.34350  0.00000  0.65650  Biso   1.000  C 
  C86      1.0000 0.38280  0.00000  0.61720  Biso   1.000  C 
  O54      1.0000 0.40854  0.00017  0.72126  Biso   1.000  O 
  H90      1.0000 0.28510  0.00000  0.61140  Biso   1.000  H 
  O55      1.0000 0.42810  0.00000  0.63260  Biso   1.000  O 
  O56      1.0000 0.36740  0.00000  0.57190  Biso   1.000  O 
  C87      1.0000 0.42195  0.02379  0.76642  Biso   1.000  C 
  C88      1.0000 0.06915  0.03247  0.76967  Biso   1.000  C 
  C89      1.0000 0.43309  0.98062  0.80242  Biso   1.000  C 
  H91      1.0000 0.39118  0.05030  0.78204  Biso   1.000  H 
  H92      1.0000 0.45785  0.04353  0.76073  Biso   1.000  H 
  H93      1.0000 0.42058  0.94658  0.78717  Biso   1.000  H 
  C90      1.0000 0.41083  0.99079  0.85683  Biso   1.000  C 
  H94      1.0000 0.47270  0.97514  0.80791  Biso   1.000  H 
  H95      1.0000 0.37657  0.01394  0.85356  Biso   1.000  H 
  H96      1.0000 0.43725  0.01204  0.87962  Biso   1.000  H 
  C91      1.0000 0.40234  0.94293  0.88844  Biso   1.000  C 
  C92      1.0000 0.07485  0.03926  0.71486  Biso   1.000  C 
  H97      1.0000 0.08236  0.06484  0.79223  Biso   1.000  H 
  H98      1.0000 0.02853  0.02660  0.77760  Biso   1.000  H 
  C93      1.0000 0.09335  0.08967  0.70242  Biso   1.000  C 
  H99      1.0000 0.03723  0.03602  0.69818  Biso   1.000  H 
  H100     1.0000 0.09781  0.01068  0.69719  Biso   1.000  H 
  H101     1.0000 0.06593  0.11638  0.71994  Biso   1.000  H 
  H102     1.0000 0.09294  0.09478  0.66160  Biso   1.000  H 
  C94      1.0000 0.14408  0.10479  0.72149  Biso   1.000  C 
  H103     1.0000 0.43505  0.92260  0.88911  Biso   1.000  H 
  C95      1.0000 0.38541  0.95506  0.94047  Biso   1.000  C 
  H104     1.0000 0.37223  0.92068  0.86729  Biso   1.000  H 
  H105     1.0000 0.14803  0.10201  0.76310  Biso   1.000  H 
  C96      1.0000 0.15628  0.15781  0.70670  Biso   1.000  C 
  H106     1.0000 0.17321  0.08144  0.70459  Biso   1.000  H 
  H107     1.0000 0.12946  0.18390  0.72406  Biso   1.000  H 
  H108     1.0000 0.15665  0.16160  0.66550  Biso   1.000  H 
  H109     1.0000 0.19437  0.16673  0.72159  Biso   1.000  H 
  H110     1.0000 0.41961  0.96449  0.96225  Biso   1.000  H 
  H111     1.0000 0.36511  0.92155  0.95922  Biso   1.000  H 
  H112     1.0000 0.35973  0.98609  0.94266  Biso   1.000  H 
  O57      1.0000 0.07190  0.13260  0.00000  Biso   1.000  O 
  C97      1.0000 0.11720  0.11720  0.00000  Biso   1.000  C 
  O58      1.0000 0.13260  0.07190  0.00000  Biso   1.000  O 
  C98      1.0000 0.15650  0.15650  0.00000  Biso   1.000  C 
  C99      1.0000 0.14470  0.20580  0.00000  Biso   1.000  C 
  C100     1.0000 0.20580  0.14470  0.00000  Biso   1.000  C 
  C101     1.0000 0.17950  0.24200  0.00000  Biso   1.000  C 
  H113     1.0000 0.11140  0.21490  0.00000  Biso   1.000  H 
  C102     1.0000 0.24200  0.17950  0.00000  Biso   1.000  C 
  O59      1.0000 0.22155  0.09300  0.00590  Biso   1.000  O 
  C103     1.0000 0.23070  0.23070  0.00000  Biso   1.000  C 
  C104     1.0000 0.26930  0.26930  0.00000  Biso   1.000  C 
  H114     1.0000 0.16950  0.27510  0.00000  Biso   1.000  H 
  C105     1.0000 0.25800  0.32050  0.00000  Biso   1.000  C 
  H115     1.0000 0.27510  0.16950  0.00000  Biso   1.000  H 
  C106     1.0000 0.32050  0.25800  0.00000  Biso   1.000  C 
  C107     1.0000 0.29420  0.35530  0.00000  Biso   1.000  C 
  H116     1.0000 0.22490  0.33050  0.00000  Biso   1.000  H 
  C108     1.0000 0.35530  0.29420  0.00000  Biso   1.000  C 
  H117     1.0000 0.33050  0.22490  0.00000  Biso   1.000  H 
  C109     1.0000 0.34350  0.34350  0.00000  Biso   1.000  C 
  C110     1.0000 0.38280  0.38280  0.00000  Biso   1.000  C 
  O60      1.0000 0.27985  0.40779  0.99976  Biso   1.000  O 
  H118     1.0000 0.38860  0.28510  0.00000  Biso   1.000  H 
  O61      1.0000 0.36740  0.42810  0.00000  Biso   1.000  O 
  O62      1.0000 0.42810  0.36740  0.00000  Biso   1.000  O 
  C111     1.0000 0.23095  0.41750  0.01758  Biso   1.000  C 
  C112     1.0000 0.22853  0.06787  0.95979  Biso   1.000  C 
  C113     1.0000 0.21995  0.40662  0.07427  Biso   1.000  C 
  H119     1.0000 0.20062  0.40251  0.99300  Biso   1.000  H 
  H120     1.0000 0.22723  0.45871  0.01429  Biso   1.000  H 
  H121     1.0000 0.25327  0.39231  0.09321  Biso   1.000  H 
  C114     1.0000 0.17363  0.37322  0.08198  Biso   1.000  C 
  H122     1.0000 0.21093  0.44353  0.09019  Biso   1.000  H 
  H123     1.0000 0.18228  0.33470  0.07099  Biso   1.000  H 
  H124     1.0000 0.14090  0.38741  0.06060  Biso   1.000  H 
  C115     1.0000 0.15884  0.37573  0.13614  Biso   1.000  C 
  C116     1.0000 0.27949  0.07695  0.93313  Biso   1.000  C 
  H125     1.0000 0.19527  0.07289  0.93535  Biso   1.000  H 
  H126     1.0000 0.22952  0.02787  0.97050  Biso   1.000  H 
  C117     1.0000 0.27241  0.10010  0.87973  Biso   1.000  C 
  H127     1.0000 0.29766  0.03990  0.92648  Biso   1.000  H 
  H128     1.0000 0.30582  0.09845  0.95541  Biso   1.000  H 
  H129     1.0000 0.23425  0.09172  0.86595  Biso   1.000  H 
  H130     1.0000 0.30007  0.08249  0.85385  Biso   1.000  H 
  C118     1.0000 0.27983  0.15723  0.87538  Biso   1.000  C 
  H131     1.0000 0.11972  0.36299  0.13606  Biso   1.000  H 
  C119     1.0000 0.18654  0.34094  0.17146  Biso   1.000  C 
  H132     1.0000 0.15987  0.41462  0.15111  Biso   1.000  H 
  H133     1.0000 0.25079  0.17607  0.89780  Biso   1.000  H 
  C120     1.0000 0.27860  0.17248  0.81852  Biso   1.000  C 
  H134     1.0000 0.31616  0.16790  0.88992  Biso   1.000  H 
  H135     1.0000 0.24246  0.16196  0.80057  Biso   1.000  H 
  H136     1.0000 0.30930  0.15172  0.80015  Biso   1.000  H 
  H137     1.0000 0.28549  0.21267  0.81230  Biso   1.000  H 
  H138     1.0000 0.16190  0.33420  0.20367  Biso   1.000  H 
  H139     1.0000 0.22175  0.35710  0.18462  Biso   1.000  H 
  H140     1.0000 0.19454  0.30445  0.15346  Biso   1.000  H 
  O63      1.0000 0.07190  0.86740  0.00000  Biso   1.000  O 
  C121     1.0000 0.11720  0.88280  0.00000  Biso   1.000  C 
  O64      1.0000 0.13260  0.92810  0.00000  Biso   1.000  O 
  C122     1.0000 0.15650  0.84350  0.00000  Biso   1.000  C 
  C123     1.0000 0.14470  0.79420  0.00000  Biso   1.000  C 
  C124     1.0000 0.20580  0.85530  0.00000  Biso   1.000  C 
  C125     1.0000 0.17950  0.75800  0.00000  Biso   1.000  C 
  H141     1.0000 0.11140  0.78510  0.00000  Biso   1.000  H 
  C126     1.0000 0.24200  0.82050  0.00000  Biso   1.000  C 
  O65      1.0000 0.22155  0.90700  0.99410  Biso   1.000  O 
  C127     1.0000 0.23070  0.76930  0.00000  Biso   1.000  C 
  C128     1.0000 0.26930  0.73070  0.00000  Biso   1.000  C 
  H142     1.0000 0.16950  0.72490  0.00000  Biso   1.000  H 
  C129     1.0000 0.25800  0.67950  0.00000  Biso   1.000  C 
  H143     1.0000 0.27510  0.83050  0.00000  Biso   1.000  H 
  C130     1.0000 0.32050  0.74200  0.00000  Biso   1.000  C 
  C131     1.0000 0.29420  0.64470  0.00000  Biso   1.000  C 
  H144     1.0000 0.22490  0.66950  0.00000  Biso   1.000  H 
  C132     1.0000 0.35530  0.70580  0.00000  Biso   1.000  C 
  H145     1.0000 0.33050  0.77510  0.00000  Biso   1.000  H 
  C133     1.0000 0.34350  0.65650  0.00000  Biso   1.000  C 
  C134     1.0000 0.38280  0.61720  0.00000  Biso   1.000  C 
  O66      1.0000 0.27985  0.59221  0.00024  Biso   1.000  O 
  H146     1.0000 0.38860  0.71490  0.00000  Biso   1.000  H 
  O67      1.0000 0.36740  0.57190  0.00000  Biso   1.000  O 
  O68      1.0000 0.42810  0.63260  0.00000  Biso   1.000  O 
  C135     1.0000 0.23095  0.58250  0.98242  Biso   1.000  C 
  C136     1.0000 0.22854  0.93213  0.04021  Biso   1.000  C 
  C137     1.0000 0.21995  0.59338  0.92573  Biso   1.000  C 
  H147     1.0000 0.20062  0.59749  0.00700  Biso   1.000  H 
  H148     1.0000 0.22723  0.54129  0.98571  Biso   1.000  H 
  H149     1.0000 0.25327  0.60769  0.90679  Biso   1.000  H 
  C138     1.0000 0.17363  0.62678  0.91802  Biso   1.000  C 
  H150     1.0000 0.21093  0.55647  0.90981  Biso   1.000  H 
  H151     1.0000 0.18228  0.66530  0.92901  Biso   1.000  H 
  H152     1.0000 0.14090  0.61259  0.93940  Biso   1.000  H 
  C139     1.0000 0.15884  0.62427  0.86386  Biso   1.000  C 
  C140     1.0000 0.27949  0.92306  0.06687  Biso   1.000  C 
  H153     1.0000 0.19527  0.92712  0.06465  Biso   1.000  H 
  H154     1.0000 0.22953  0.97213  0.02949  Biso   1.000  H 
  C141     1.0000 0.27241  0.89990  0.12027  Biso   1.000  C 
  H155     1.0000 0.29766  0.96010  0.07352  Biso   1.000  H 
  H156     1.0000 0.30582  0.90155  0.04459  Biso   1.000  H 
  H157     1.0000 0.23425  0.90828  0.13404  Biso   1.000  H 
  H158     1.0000 0.30006  0.91751  0.14615  Biso   1.000  H 
  C142     1.0000 0.27983  0.84277  0.12462  Biso   1.000  C 
  H159     1.0000 0.11972  0.63701  0.86394  Biso   1.000  H 
  C143     1.0000 0.18654  0.65906  0.82854  Biso   1.000  C 
  H160     1.0000 0.15987  0.58538  0.84889  Biso   1.000  H 
  H161     1.0000 0.25079  0.82393  0.10220  Biso   1.000  H 
  C144     1.0000 0.27860  0.82752  0.18148  Biso   1.000  C 
  H162     1.0000 0.31617  0.83211  0.11008  Biso   1.000  H 
  H163     1.0000 0.24246  0.83804  0.19943  Biso   1.000  H 
  H164     1.0000 0.30930  0.84828  0.19985  Biso   1.000  H 
  H165     1.0000 0.28550  0.78733  0.18771  Biso   1.000  H 
  H166     1.0000 0.16190  0.66580  0.79633  Biso   1.000  H 
  H167     1.0000 0.22175  0.64290  0.81538  Biso   1.000  H 
  H168     1.0000 0.19454  0.69555  0.84655  Biso   1.000  H 
  O69      1.0000 0.92810  0.86740  0.00000  Biso   1.000  O 
  C145     1.0000 0.88280  0.88280  0.00000  Biso   1.000  C 
  O70      1.0000 0.86740  0.92810  0.00000  Biso   1.000  O 
  C146     1.0000 0.84350  0.84350  0.00000  Biso   1.000  C 
  C147     1.0000 0.85530  0.79420  0.00000  Biso   1.000  C 
  C148     1.0000 0.79420  0.85530  0.00000  Biso   1.000  C 
  C149     1.0000 0.82050  0.75800  0.00000  Biso   1.000  C 
  H169     1.0000 0.88860  0.78510  0.00000  Biso   1.000  H 
  C150     1.0000 0.75800  0.82050  0.00000  Biso   1.000  C 
  O71      1.0000 0.77845  0.90700  0.00590  Biso   1.000  O 
  C151     1.0000 0.76930  0.76930  0.00000  Biso   1.000  C 
  C152     1.0000 0.73070  0.73070  0.00000  Biso   1.000  C 
  H170     1.0000 0.83050  0.72490  0.00000  Biso   1.000  H 
  C153     1.0000 0.74200  0.67950  0.00000  Biso   1.000  C 
  H171     1.0000 0.72490  0.83050  0.00000  Biso   1.000  H 
  C154     1.0000 0.67950  0.74200  0.00000  Biso   1.000  C 
  C155     1.0000 0.70580  0.64470  0.00000  Biso   1.000  C 
  H172     1.0000 0.77510  0.66950  0.00000  Biso   1.000  H 
  C156     1.0000 0.64470  0.70580  0.00000  Biso   1.000  C 
  H173     1.0000 0.66950  0.77510  0.00000  Biso   1.000  H 
  C157     1.0000 0.65650  0.65650  0.00000  Biso   1.000  C 
  C158     1.0000 0.61720  0.61720  0.00000  Biso   1.000  C 
  O72      1.0000 0.72015  0.59221  0.99976  Biso   1.000  O 
  H174     1.0000 0.61140  0.71490  0.00000  Biso   1.000  H 
  O73      1.0000 0.63260  0.57190  0.00000  Biso   1.000  O 
  O74      1.0000 0.57190  0.63260  0.00000  Biso   1.000  O 
  C159     1.0000 0.76905  0.58250  0.01758  Biso   1.000  C 
  C160     1.0000 0.77146  0.93213  0.95979  Biso   1.000  C 
  C161     1.0000 0.78005  0.59338  0.07427  Biso   1.000  C 
  H175     1.0000 0.79938  0.59749  0.99300  Biso   1.000  H 
  H176     1.0000 0.77277  0.54129  0.01429  Biso   1.000  H 
  H177     1.0000 0.74673  0.60769  0.09321  Biso   1.000  H 
  C162     1.0000 0.82637  0.62678  0.08198  Biso   1.000  C 
  H178     1.0000 0.78908  0.55647  0.09019  Biso   1.000  H 
  H179     1.0000 0.81772  0.66530  0.07099  Biso   1.000  H 
  H180     1.0000 0.85910  0.61259  0.06060  Biso   1.000  H 
  C163     1.0000 0.84116  0.62427  0.13614  Biso   1.000  C 
  C164     1.0000 0.72051  0.92306  0.93314  Biso   1.000  C 
  H181     1.0000 0.80473  0.92712  0.93535  Biso   1.000  H 
  H182     1.0000 0.77048  0.97213  0.97050  Biso   1.000  H 
  C165     1.0000 0.72759  0.89990  0.87973  Biso   1.000  C 
  H183     1.0000 0.70233  0.96010  0.92648  Biso   1.000  H 
  H184     1.0000 0.69419  0.90155  0.95541  Biso   1.000  H 
  H185     1.0000 0.76575  0.90828  0.86595  Biso   1.000  H 
  H186     1.0000 0.69994  0.91751  0.85385  Biso   1.000  H 
  C166     1.0000 0.72017  0.84277  0.87538  Biso   1.000  C 
  H187     1.0000 0.88028  0.63701  0.13606  Biso   1.000  H 
  C167     1.0000 0.81347  0.65906  0.17146  Biso   1.000  C 
  H188     1.0000 0.84012  0.58538  0.15111  Biso   1.000  H 
  H189     1.0000 0.74921  0.82393  0.89780  Biso   1.000  H 
  C168     1.0000 0.72139  0.82752  0.81852  Biso   1.000  C 
  H190     1.0000 0.68383  0.83211  0.88992  Biso   1.000  H 
  H191     1.0000 0.75754  0.83804  0.80057  Biso   1.000  H 
  H192     1.0000 0.69070  0.84828  0.80015  Biso   1.000  H 
  H193     1.0000 0.71450  0.78733  0.81230  Biso   1.000  H 
  H194     1.0000 0.83810  0.66580  0.20367  Biso   1.000  H 
  H195     1.0000 0.77825  0.64290  0.18462  Biso   1.000  H 
  H196     1.0000 0.80546  0.69555  0.15346  Biso   1.000  H 
  O75      1.0000 0.92810  0.13260  0.00000  Biso   1.000  O 
  C169     1.0000 0.88280  0.11720  0.00000  Biso   1.000  C 
  O76      1.0000 0.86740  0.07190  0.00000  Biso   1.000  O 
  C170     1.0000 0.84350  0.15650  0.00000  Biso   1.000  C 
  C171     1.0000 0.85530  0.20580  0.00000  Biso   1.000  C 
  C172     1.0000 0.79420  0.14470  0.00000  Biso   1.000  C 
  C173     1.0000 0.82050  0.24200  0.00000  Biso   1.000  C 
  H197     1.0000 0.88860  0.21490  0.00000  Biso   1.000  H 
  C174     1.0000 0.75800  0.17950  0.00000  Biso   1.000  C 
  O77      1.0000 0.77845  0.09300  0.99410  Biso   1.000  O 
  C175     1.0000 0.76930  0.23070  0.00000  Biso   1.000  C 
  C176     1.0000 0.73070  0.26930  0.00000  Biso   1.000  C 
  H198     1.0000 0.83050  0.27510  0.00000  Biso   1.000  H 
  C177     1.0000 0.74200  0.32050  0.00000  Biso   1.000  C 
  H199     1.0000 0.72490  0.16950  0.00000  Biso   1.000  H 
  C178     1.0000 0.67950  0.25800  0.00000  Biso   1.000  C 
  C179     1.0000 0.70580  0.35530  0.00000  Biso   1.000  C 
  H200     1.0000 0.77510  0.33050  0.00000  Biso   1.000  H 
  C180     1.0000 0.64470  0.29420  0.00000  Biso   1.000  C 
  H201     1.0000 0.66950  0.22490  0.00000  Biso   1.000  H 
  C181     1.0000 0.65650  0.34350  0.00000  Biso   1.000  C 
  C182     1.0000 0.61720  0.38280  0.00000  Biso   1.000  C 
  O78      1.0000 0.72015  0.40779  0.00024  Biso   1.000  O 
  H202     1.0000 0.61140  0.28510  0.00000  Biso   1.000  H 
  O79      1.0000 0.63260  0.42810  0.00000  Biso   1.000  O 
  O80      1.0000 0.57190  0.36740  0.00000  Biso   1.000  O 
  C183     1.0000 0.76905  0.41750  0.98242  Biso   1.000  C 
  C184     1.0000 0.77146  0.06787  0.04021  Biso   1.000  C 
  C185     1.0000 0.78005  0.40662  0.92573  Biso   1.000  C 
  H203     1.0000 0.79938  0.40251  0.00700  Biso   1.000  H 
  H204     1.0000 0.77277  0.45871  0.98571  Biso   1.000  H 
  H205     1.0000 0.74673  0.39231  0.90679  Biso   1.000  H 
  C186     1.0000 0.82637  0.37322  0.91802  Biso   1.000  C 
  H206     1.0000 0.78908  0.44353  0.90981  Biso   1.000  H 
  H207     1.0000 0.81772  0.33470  0.92901  Biso   1.000  H 
  H208     1.0000 0.85910  0.38741  0.93940  Biso   1.000  H 
  C187     1.0000 0.84116  0.37573  0.86386  Biso   1.000  C 
  C188     1.0000 0.72051  0.07695  0.06687  Biso   1.000  C 
  H209     1.0000 0.80473  0.07289  0.06465  Biso   1.000  H 
  H210     1.0000 0.77048  0.02787  0.02949  Biso   1.000  H 
  C189     1.0000 0.72759  0.10010  0.12027  Biso   1.000  C 
  H211     1.0000 0.70234  0.03990  0.07352  Biso   1.000  H 
  H212     1.0000 0.69419  0.09845  0.04459  Biso   1.000  H 
  H213     1.0000 0.76575  0.09172  0.13405  Biso   1.000  H 
  H214     1.0000 0.69993  0.08249  0.14615  Biso   1.000  H 
  C190     1.0000 0.72017  0.15723  0.12462  Biso   1.000  C 
  H215     1.0000 0.88028  0.36299  0.86394  Biso   1.000  H 
  C191     1.0000 0.81347  0.34094  0.82854  Biso   1.000  C 
  H216     1.0000 0.84012  0.41462  0.84889  Biso   1.000  H 
  H217     1.0000 0.74921  0.17607  0.10220  Biso   1.000  H 
  C192     1.0000 0.72140  0.17248  0.18148  Biso   1.000  C 
  H218     1.0000 0.68384  0.16790  0.11008  Biso   1.000  H 
  H219     1.0000 0.75754  0.16196  0.19943  Biso   1.000  H 
  H220     1.0000 0.69070  0.15172  0.19985  Biso   1.000  H 
  H221     1.0000 0.71451  0.21267  0.18771  Biso   1.000  H 
  H222     1.0000 0.83810  0.33420  0.79633  Biso   1.000  H 
  H223     1.0000 0.77825  0.35710  0.81538  Biso   1.000  H 
  H224     1.0000 0.80546  0.30445  0.84655  Biso   1.000  H 
  O81      1.0000 0.00000  0.07190  0.13260  Biso   1.000  O 
  C193     1.0000 0.00000  0.11720  0.11720  Biso   1.000  C 
  O82      1.0000 0.00000  0.13260  0.07190  Biso   1.000  O 
  C194     1.0000 0.00000  0.15650  0.15650  Biso   1.000  C 
  C195     1.0000 0.00000  0.14470  0.20580  Biso   1.000  C 
  C196     1.0000 0.00000  0.20580  0.14470  Biso   1.000  C 
  C197     1.0000 0.00000  0.17950  0.24200  Biso   1.000  C 
  H225     1.0000 0.00000  0.11140  0.21490  Biso   1.000  H 
  C198     1.0000 0.00000  0.24200  0.17950  Biso   1.000  C 
  O83      1.0000 0.00670  0.22075  0.09269  Biso   1.000  O 
  C199     1.0000 0.00000  0.23070  0.23070  Biso   1.000  C 
  C200     1.0000 0.00000  0.26930  0.26930  Biso   1.000  C 
  H226     1.0000 0.00000  0.16950  0.27510  Biso   1.000  H 
  C201     1.0000 0.00000  0.25800  0.32050  Biso   1.000  C 
  H227     1.0000 0.00000  0.27510  0.16950  Biso   1.000  H 
  C202     1.0000 0.00000  0.32050  0.25800  Biso   1.000  C 
  C203     1.0000 0.00000  0.29420  0.35530  Biso   1.000  C 
  H228     1.0000 0.00000  0.22490  0.33050  Biso   1.000  H 
  C204     1.0000 0.00000  0.35530  0.29420  Biso   1.000  C 
  H229     1.0000 0.00000  0.33050  0.22490  Biso   1.000  H 
  C205     1.0000 0.00000  0.34350  0.34350  Biso   1.000  C 
  C206     1.0000 0.00000  0.38280  0.38280  Biso   1.000  C 
  O84      1.0000 0.00588  0.27645  0.40868  Biso   1.000  O 
  H230     1.0000 0.00000  0.38860  0.28510  Biso   1.000  H 
  O85      1.0000 0.00000  0.36740  0.42810  Biso   1.000  O 
  O86      1.0000 0.00000  0.42810  0.36740  Biso   1.000  O 
  C207     1.0000 0.97229  0.23947  0.41986  Biso   1.000  C 
  C208     1.0000 0.96336  0.24263  0.07332  Biso   1.000  C 
  C209     1.0000 0.01068  0.19336  0.42992  Biso   1.000  C 
  H231     1.0000 0.94300  0.23340  0.39311  Biso   1.000  H 
  H232     1.0000 0.95249  0.24794  0.45468  Biso   1.000  H 
  H233     1.0000 0.04015  0.19412  0.40133  Biso   1.000  H 
  C210     1.0000 0.98872  0.14003  0.42940  Biso   1.000  C 
  H234     1.0000 0.02579  0.19611  0.46837  Biso   1.000  H 
  H235     1.0000 0.95005  0.13795  0.43823  Biso   1.000  H 
  H236     1.0000 0.00874  0.11809  0.45630  Biso   1.000  H 
  C211     1.0000 0.99310  0.11429  0.38071  Biso   1.000  C 
  C212     1.0000 0.97331  0.29797  0.07049  Biso   1.000  C 
  H237     1.0000 0.92924  0.23471  0.09567  Biso   1.000  H 
  H238     1.0000 0.95822  0.22794  0.03535  Biso   1.000  H 
  C213     1.0000 0.92756  0.32717  0.05164  Biso   1.000  C 
  H239     1.0000 0.00566  0.30221  0.04536  Biso   1.000  H 
  H240     1.0000 0.98350  0.31318  0.10686  Biso   1.000  H 
  H241     1.0000 0.89312  0.31196  0.06889  Biso   1.000  H 
  H242     1.0000 0.92549  0.32161  0.01076  Biso   1.000  H 
  C214     1.0000 0.92618  0.38341  0.06361  Biso   1.000  C 
  H243     1.0000 0.97609  0.13705  0.35161  Biso   1.000  H 
  C215     1.0000 0.04488  0.10644  0.36471  Biso   1.000  C 
  H244     1.0000 0.97689  0.07567  0.38263  Biso   1.000  H 
  H245     1.0000 0.89171  0.40037  0.04803  Biso   1.000  H 
  C216     1.0000 0.97045  0.40899  0.04350  Biso   1.000  C 
  H246     1.0000 0.92613  0.38888  0.10464  Biso   1.000  H 
  H247     1.0000 0.95892  0.42720  0.00862  Biso   1.000  H 
  H248     1.0000 0.00040  0.38164  0.03917  Biso   1.000  H 
  H249     1.0000 0.98500  0.43805  0.06862  Biso   1.000  H 
  H250     1.0000 0.05187  0.13536  0.33608  Biso   1.000  H 
  H251     1.0000 0.04929  0.06770  0.34747  Biso   1.000  H 
  H252     1.0000 0.06995  0.10840  0.39546  Biso   1.000  H 
  O87      1.0000 0.00000  0.07190  0.86740  Biso   1.000  O 
  C217     1.0000 0.00000  0.11720  0.88280  Biso   1.000  C 
  O88      1.0000 0.00000  0.13260  0.92810  Biso   1.000  O 
  C218     1.0000 0.00000  0.15650  0.84350  Biso   1.000  C 
  C219     1.0000 0.00000  0.14470  0.79420  Biso   1.000  C 
  C220     1.0000 0.00000  0.20580  0.85530  Biso   1.000  C 
  C221     1.0000 0.00000  0.17950  0.75800  Biso   1.000  C 
  H253     1.0000 0.00000  0.11140  0.78510  Biso   1.000  H 
  C222     1.0000 0.00000  0.24200  0.82050  Biso   1.000  C 
  O89      1.0000 0.99330  0.22075  0.90731  Biso   1.000  O 
  C223     1.0000 0.00000  0.23070  0.76930  Biso   1.000  C 
  C224     1.0000 0.00000  0.26930  0.73070  Biso   1.000  C 
  H254     1.0000 0.00000  0.16950  0.72490  Biso   1.000  H 
  C225     1.0000 0.00000  0.25800  0.67950  Biso   1.000  C 
  H255     1.0000 0.00000  0.27510  0.83050  Biso   1.000  H 
  C226     1.0000 0.00000  0.32050  0.74200  Biso   1.000  C 
  C227     1.0000 0.00000  0.29420  0.64470  Biso   1.000  C 
  H256     1.0000 0.00000  0.22490  0.66950  Biso   1.000  H 
  C228     1.0000 0.00000  0.35530  0.70580  Biso   1.000  C 
  H257     1.0000 0.00000  0.33050  0.77510  Biso   1.000  H 
  C229     1.0000 0.00000  0.34350  0.65650  Biso   1.000  C 
  C230     1.0000 0.00000  0.38280  0.61720  Biso   1.000  C 
  O90      1.0000 0.99412  0.27645  0.59132  Biso   1.000  O 
  H258     1.0000 0.00000  0.38860  0.71490  Biso   1.000  H 
  O91      1.0000 0.00000  0.36740  0.57190  Biso   1.000  O 
  O92      1.0000 0.00000  0.42810  0.63260  Biso   1.000  O 
  C231     1.0000 0.02771  0.23947  0.58014  Biso   1.000  C 
  C232     1.0000 0.03665  0.24263  0.92668  Biso   1.000  C 
  C233     1.0000 0.98931  0.19336  0.57008  Biso   1.000  C 
  H259     1.0000 0.05700  0.23340  0.60690  Biso   1.000  H 
  H260     1.0000 0.04752  0.24794  0.54532  Biso   1.000  H 
  H261     1.0000 0.95985  0.19412  0.59867  Biso   1.000  H 
  C234     1.0000 0.01128  0.14003  0.57060  Biso   1.000  C 
  H262     1.0000 0.97421  0.19611  0.53163  Biso   1.000  H 
  H263     1.0000 0.04995  0.13794  0.56177  Biso   1.000  H 
  H264     1.0000 0.99125  0.11809  0.54370  Biso   1.000  H 
  C235     1.0000 0.00689  0.11429  0.61929  Biso   1.000  C 
  C236     1.0000 0.02669  0.29797  0.92951  Biso   1.000  C 
  H265     1.0000 0.07076  0.23471  0.90434  Biso   1.000  H 
  H266     1.0000 0.04178  0.22794  0.96465  Biso   1.000  H 
  C237     1.0000 0.07244  0.32717  0.94836  Biso   1.000  C 
  H267     1.0000 0.99434  0.30221  0.95464  Biso   1.000  H 
  H268     1.0000 0.01650  0.31318  0.89314  Biso   1.000  H 
  H269     1.0000 0.10688  0.31196  0.93111  Biso   1.000  H 
  H270     1.0000 0.07451  0.32161  0.98924  Biso   1.000  H 
  C238     1.0000 0.07382  0.38341  0.93639  Biso   1.000  C 
  H271     1.0000 0.02390  0.13706  0.64839  Biso   1.000  H 
  C239     1.0000 0.95511  0.10643  0.63530  Biso   1.000  C 
  H272     1.0000 0.02311  0.07568  0.61737  Biso   1.000  H 
  H273     1.0000 0.10830  0.40037  0.95197  Biso   1.000  H 
  C240     1.0000 0.02955  0.40899  0.95650  Biso   1.000  C 
  H274     1.0000 0.07387  0.38888  0.89536  Biso   1.000  H 
  H275     1.0000 0.04108  0.42720  0.99138  Biso   1.000  H 
  H276     1.0000 0.99960  0.38164  0.96083  Biso   1.000  H 
  H277     1.0000 0.01500  0.43805  0.93138  Biso   1.000  H 
  H278     1.0000 0.94815  0.13528  0.66399  Biso   1.000  H 
  H279     1.0000 0.95069  0.06765  0.65242  Biso   1.000  H 
  H280     1.0000 0.93003  0.10850  0.60455  Biso   1.000  H 
  O93      1.0000 0.00000  0.92810  0.86740  Biso   1.000  O 
  C241     1.0000 0.00000  0.88280  0.88280  Biso   1.000  C 
  O94      1.0000 0.00000  0.86740  0.92810  Biso   1.000  O 
  C242     1.0000 0.00000  0.84350  0.84350  Biso   1.000  C 
  C243     1.0000 0.00000  0.85530  0.79420  Biso   1.000  C 
  C244     1.0000 0.00000  0.79420  0.85530  Biso   1.000  C 
  C245     1.0000 0.00000  0.82050  0.75800  Biso   1.000  C 
  H281     1.0000 0.00000  0.88860  0.78510  Biso   1.000  H 
  C246     1.0000 0.00000  0.75800  0.82050  Biso   1.000  C 
  O95      1.0000 0.00670  0.77925  0.90731  Biso   1.000  O 
  C247     1.0000 0.00000  0.76930  0.76930  Biso   1.000  C 
  C248     1.0000 0.00000  0.73070  0.73070  Biso   1.000  C 
  H282     1.0000 0.00000  0.83050  0.72490  Biso   1.000  H 
  C249     1.0000 0.00000  0.74200  0.67950  Biso   1.000  C 
  H283     1.0000 0.00000  0.72490  0.83050  Biso   1.000  H 
  C250     1.0000 0.00000  0.67950  0.74200  Biso   1.000  C 
  C251     1.0000 0.00000  0.70580  0.64470  Biso   1.000  C 
  H284     1.0000 0.00000  0.77510  0.66950  Biso   1.000  H 
  C252     1.0000 0.00000  0.64470  0.70580  Biso   1.000  C 
  H285     1.0000 0.00000  0.66950  0.77510  Biso   1.000  H 
  C253     1.0000 0.00000  0.65650  0.65650  Biso   1.000  C 
  C254     1.0000 0.00000  0.61720  0.61720  Biso   1.000  C 
  O96      1.0000 0.00590  0.72355  0.59132  Biso   1.000  O 
  H286     1.0000 0.00000  0.61140  0.71490  Biso   1.000  H 
  O97      1.0000 0.00000  0.63260  0.57190  Biso   1.000  O 
  O98      1.0000 0.00000  0.57190  0.63260  Biso   1.000  O 
  C255     1.0000 0.97230  0.76051  0.58012  Biso   1.000  C 
  C256     1.0000 0.96335  0.75737  0.92668  Biso   1.000  C 
  C257     1.0000 0.01068  0.80663  0.57009  Biso   1.000  C 
  H287     1.0000 0.94300  0.76658  0.60688  Biso   1.000  H 
  H288     1.0000 0.95250  0.75203  0.54530  Biso   1.000  H 
  H289     1.0000 0.04015  0.80588  0.59867  Biso   1.000  H 
  C258     1.0000 0.98869  0.85995  0.57057  Biso   1.000  C 
  H290     1.0000 0.02579  0.80387  0.53162  Biso   1.000  H 
  H291     1.0000 0.95001  0.86202  0.56176  Biso   1.000  H 
  H292     1.0000 0.00870  0.88189  0.54366  Biso   1.000  H 
  C259     1.0000 0.99307  0.88572  0.61925  Biso   1.000  C 
  C260     1.0000 0.97331  0.70203  0.92951  Biso   1.000  C 
  H293     1.0000 0.92924  0.76529  0.90433  Biso   1.000  H 
  H294     1.0000 0.95821  0.77206  0.96465  Biso   1.000  H 
  C261     1.0000 0.92756  0.67283  0.94836  Biso   1.000  C 
  H295     1.0000 0.00565  0.69779  0.95463  Biso   1.000  H 
  H296     1.0000 0.98349  0.68682  0.89313  Biso   1.000  H 
  H297     1.0000 0.89312  0.68804  0.93112  Biso   1.000  H 
  H298     1.0000 0.92549  0.67840  0.98924  Biso   1.000  H 
  C262     1.0000 0.92618  0.61659  0.93640  Biso   1.000  C 
  H299     1.0000 0.97602  0.86299  0.64835  Biso   1.000  H 
  C263     1.0000 0.04482  0.89347  0.63533  Biso   1.000  C 
  H300     1.0000 0.97695  0.92436  0.61729  Biso   1.000  H 
  H301     1.0000 0.89170  0.59963  0.95199  Biso   1.000  H 
  C264     1.0000 0.97044  0.59101  0.95650  Biso   1.000  C 
  H302     1.0000 0.92612  0.61112  0.89537  Biso   1.000  H 
  H303     1.0000 0.95892  0.57279  0.99138  Biso   1.000  H 
  H304     1.0000 0.00039  0.61836  0.96084  Biso   1.000  H 
  H305     1.0000 0.98500  0.56196  0.93137  Biso   1.000  H 
  H306     1.0000 0.05218  0.86367  0.66296  Biso   1.000  H 
  H307     1.0000 0.04893  0.93163  0.65387  Biso   1.000  H 
  H308     1.0000 0.06971  0.89281  0.60438  Biso   1.000  H 
  O99      1.0000 0.00000  0.92810  0.13260  Biso   1.000  O 
  C265     1.0000 0.00000  0.88280  0.11720  Biso   1.000  C 
  O100     1.0000 0.00000  0.86740  0.07190  Biso   1.000  O 
  C266     1.0000 0.00000  0.84350  0.15650  Biso   1.000  C 
  C267     1.0000 0.00000  0.85530  0.20580  Biso   1.000  C 
  C268     1.0000 0.00000  0.79420  0.14470  Biso   1.000  C 
  C269     1.0000 0.00000  0.82050  0.24200  Biso   1.000  C 
  H309     1.0000 0.00000  0.88860  0.21490  Biso   1.000  H 
  C270     1.0000 0.00000  0.75800  0.17950  Biso   1.000  C 
  O101     1.0000 0.99330  0.77925  0.09269  Biso   1.000  O 
  C271     1.0000 0.00000  0.76930  0.23070  Biso   1.000  C 
  C272     1.0000 0.00000  0.73070  0.26930  Biso   1.000  C 
  H310     1.0000 0.00000  0.83050  0.27510  Biso   1.000  H 
  C273     1.0000 0.00000  0.74200  0.32050  Biso   1.000  C 
  H311     1.0000 0.00000  0.72490  0.16950  Biso   1.000  H 
  C274     1.0000 0.00000  0.67950  0.25800  Biso   1.000  C 
  C275     1.0000 0.00000  0.70580  0.35530  Biso   1.000  C 
  H312     1.0000 0.00000  0.77510  0.33050  Biso   1.000  H 
  C276     1.0000 0.00000  0.64470  0.29420  Biso   1.000  C 
  H313     1.0000 0.00000  0.66950  0.22490  Biso   1.000  H 
  C277     1.0000 0.00000  0.65650  0.34350  Biso   1.000  C 
  C278     1.0000 0.00000  0.61720  0.38280  Biso   1.000  C 
  O102     1.0000 0.99410  0.72355  0.40868  Biso   1.000  O 
  H314     1.0000 0.00000  0.61140  0.28510  Biso   1.000  H 
  O103     1.0000 0.00000  0.63260  0.42810  Biso   1.000  O 
  O104     1.0000 0.00000  0.57190  0.36740  Biso   1.000  O 
  C279     1.0000 0.02771  0.76052  0.41988  Biso   1.000  C 
  C280     1.0000 0.03665  0.75737  0.07332  Biso   1.000  C 
  C281     1.0000 0.98932  0.80663  0.42991  Biso   1.000  C 
  H315     1.0000 0.05701  0.76658  0.39312  Biso   1.000  H 
  H316     1.0000 0.04750  0.75204  0.45469  Biso   1.000  H 
  H317     1.0000 0.95985  0.80588  0.40133  Biso   1.000  H 
  C282     1.0000 0.01130  0.85995  0.42943  Biso   1.000  C 
  H318     1.0000 0.97420  0.80387  0.46838  Biso   1.000  H 
  H319     1.0000 0.04998  0.86203  0.43824  Biso   1.000  H 
  H320     1.0000 0.99129  0.88189  0.45634  Biso   1.000  H 
  C283     1.0000 0.00692  0.88572  0.38075  Biso   1.000  C 
  C284     1.0000 0.02669  0.70203  0.07049  Biso   1.000  C 
  H321     1.0000 0.07076  0.76529  0.09567  Biso   1.000  H 
  H322     1.0000 0.04179  0.77206  0.03535  Biso   1.000  H 
  C285     1.0000 0.07244  0.67283  0.05164  Biso   1.000  C 
  H323     1.0000 0.99434  0.69779  0.04537  Biso   1.000  H 
  H324     1.0000 0.01651  0.68682  0.10687  Biso   1.000  H 
  H325     1.0000 0.10688  0.68804  0.06888  Biso   1.000  H 
  H326     1.0000 0.07451  0.67840  0.01076  Biso   1.000  H 
  C286     1.0000 0.07382  0.61659  0.06360  Biso   1.000  C 
  H327     1.0000 0.02397  0.86299  0.35165  Biso   1.000  H 
  C287     1.0000 0.95518  0.89347  0.36467  Biso   1.000  C 
  H328     1.0000 0.02305  0.92436  0.38271  Biso   1.000  H 
  H329     1.0000 0.10830  0.59963  0.04801  Biso   1.000  H 
  C288     1.0000 0.02956  0.59101  0.04350  Biso   1.000  C 
  H330     1.0000 0.07388  0.61112  0.10463  Biso   1.000  H 
  H331     1.0000 0.04108  0.57279  0.00862  Biso   1.000  H 
  H332     1.0000 0.99961  0.61836  0.03916  Biso   1.000  H 
  H333     1.0000 0.01500  0.56196  0.06863  Biso   1.000  H 
  H334     1.0000 0.94784  0.86374  0.33696  Biso   1.000  H 
  H335     1.0000 0.95104  0.93169  0.34622  Biso   1.000  H 
  H336     1.0000 0.93026  0.89272  0.39561  Biso   1.000  H 
  O105     1.0000 0.13260  0.50000  0.57190  Biso   1.000  O 
  C289     1.0000 0.11720  0.50000  0.61720  Biso   1.000  C 
  O106     1.0000 0.07190  0.50000  0.63260  Biso   1.000  O 
  C290     1.0000 0.15650  0.50000  0.65650  Biso   1.000  C 
  C291     1.0000 0.20580  0.50000  0.64470  Biso   1.000  C 
  C292     1.0000 0.14470  0.50000  0.70580  Biso   1.000  C 
  C293     1.0000 0.24200  0.50000  0.67950  Biso   1.000  C 
  H337     1.0000 0.21490  0.50000  0.61140  Biso   1.000  H 
  C294     1.0000 0.17950  0.50000  0.74200  Biso   1.000  C 
  O107     1.0000 0.09287  0.50059  0.72258  Biso   1.000  O 
  C295     1.0000 0.23070  0.50000  0.73070  Biso   1.000  C 
  C296     1.0000 0.26930  0.50000  0.76930  Biso   1.000  C 
  H338     1.0000 0.27510  0.50000  0.66950  Biso   1.000  H 
  C297     1.0000 0.32050  0.50000  0.75800  Biso   1.000  C 
  H339     1.0000 0.16950  0.50000  0.77510  Biso   1.000  H 
  C298     1.0000 0.25800  0.50000  0.82050  Biso   1.000  C 
  C299     1.0000 0.35530  0.50000  0.79420  Biso   1.000  C 
  H340     1.0000 0.33050  0.50000  0.72490  Biso   1.000  H 
  C300     1.0000 0.29420  0.50000  0.85530  Biso   1.000  C 
  H341     1.0000 0.22490  0.50000  0.83050  Biso   1.000  H 
  C301     1.0000 0.34350  0.50000  0.84350  Biso   1.000  C 
  C302     1.0000 0.38280  0.50000  0.88280  Biso   1.000  C 
  O108     1.0000 0.40272  0.52333  0.78163  Biso   1.000  O 
  H342     1.0000 0.28510  0.50000  0.88860  Biso   1.000  H 
  O109     1.0000 0.42810  0.50000  0.86740  Biso   1.000  O 
  O110     1.0000 0.36740  0.50000  0.92810  Biso   1.000  O 
  C303     1.0000 0.42854  0.50055  0.74319  Biso   1.000  C 
  C304     1.0000 0.07723  0.45061  0.72817  Biso   1.000  C 
  C305     1.0000 0.43734  0.54340  0.70653  Biso   1.000  C 
  H343     1.0000 0.40873  0.46835  0.72593  Biso   1.000  H 
  H344     1.0000 0.46294  0.48659  0.76104  Biso   1.000  H 
  H345     1.0000 0.41375  0.57545  0.71662  Biso   1.000  H 
  C306     1.0000 0.42669  0.53323  0.65013  Biso   1.000  C 
  H346     1.0000 0.47683  0.55538  0.71229  Biso   1.000  H 
  H347     1.0000 0.38582  0.53354  0.64207  Biso   1.000  H 
  H348     1.0000 0.44230  0.49481  0.64057  Biso   1.000  H 
  C307     1.0000 0.45648  0.56818  0.61795  Biso   1.000  C 
  C308     1.0000 0.09745  0.42261  0.77425  Biso   1.000  C 
  H349     1.0000 0.08377  0.42998  0.69290  Biso   1.000  H 
  H350     1.0000 0.03672  0.45284  0.73410  Biso   1.000  H 
  C309     1.0000 0.12888  0.37817  0.75733  Biso   1.000  C 
  H351     1.0000 0.06495  0.40589  0.79460  Biso   1.000  H 
  H352     1.0000 0.11675  0.44750  0.79994  Biso   1.000  H 
  H353     1.0000 0.15631  0.39053  0.72873  Biso   1.000  H 
  H354     1.0000 0.10351  0.35026  0.74055  Biso   1.000  H 
  C310     1.0000 0.15546  0.35339  0.80054  Biso   1.000  C 
  H355     1.0000 0.45529  0.55421  0.57958  Biso   1.000  H 
  C311     1.0000 0.44091  0.62078  0.62025  Biso   1.000  C 
  H356     1.0000 0.49547  0.56593  0.63095  Biso   1.000  H 
  H357     1.0000 0.18351  0.38074  0.81322  Biso   1.000  H 
  C312     1.0000 0.18248  0.30464  0.78746  Biso   1.000  C 
  H358     1.0000 0.12973  0.34448  0.83170  Biso   1.000  H 
  H359     1.0000 0.18285  0.29685  0.74692  Biso   1.000  H 
  H360     1.0000 0.16498  0.27290  0.80741  Biso   1.000  H 
  H361     1.0000 0.22153  0.30788  0.80049  Biso   1.000  H 
  H362     1.0000 0.46942  0.64296  0.59951  Biso   1.000  H 
  H363     1.0000 0.43672  0.63659  0.65843  Biso   1.000  H 
  H364     1.0000 0.40528  0.62304  0.60148  Biso   1.000  H 
  O111     1.0000 0.86740  0.50000  0.57190  Biso   1.000  O 
  C313     1.0000 0.88280  0.50000  0.61720  Biso   1.000  C 
  O112     1.0000 0.92810  0.50000  0.63260  Biso   1.000  O 
  C314     1.0000 0.84350  0.50000  0.65650  Biso   1.000  C 
  C315     1.0000 0.79420  0.50000  0.64470  Biso   1.000  C 
  C316     1.0000 0.85530  0.50000  0.70580  Biso   1.000  C 
  C317     1.0000 0.75800  0.50000  0.67950  Biso   1.000  C 
  H365     1.0000 0.78510  0.50000  0.61140  Biso   1.000  H 
  C318     1.0000 0.82050  0.50000  0.74200  Biso   1.000  C 
  O113     1.0000 0.90713  0.49941  0.72258  Biso   1.000  O 
  C319     1.0000 0.76930  0.50000  0.73070  Biso   1.000  C 
  C320     1.0000 0.73070  0.50000  0.76930  Biso   1.000  C 
  H366     1.0000 0.72490  0.50000  0.66950  Biso   1.000  H 
  C321     1.0000 0.67950  0.50000  0.75800  Biso   1.000  C 
  H367     1.0000 0.83050  0.50000  0.77510  Biso   1.000  H 
  C322     1.0000 0.74200  0.50000  0.82050  Biso   1.000  C 
  C323     1.0000 0.64470  0.50000  0.79420  Biso   1.000  C 
  H368     1.0000 0.66950  0.50000  0.72490  Biso   1.000  H 
  C324     1.0000 0.70580  0.50000  0.85530  Biso   1.000  C 
  H369     1.0000 0.77510  0.50000  0.83050  Biso   1.000  H 
  C325     1.0000 0.65650  0.50000  0.84350  Biso   1.000  C 
  C326     1.0000 0.61720  0.50000  0.88280  Biso   1.000  C 
  O114     1.0000 0.59728  0.47667  0.78163  Biso   1.000  O 
  H370     1.0000 0.71490  0.50000  0.88860  Biso   1.000  H 
  O115     1.0000 0.57190  0.50000  0.86740  Biso   1.000  O 
  O116     1.0000 0.63260  0.50000  0.92810  Biso   1.000  O 
  C327     1.0000 0.57146  0.49945  0.74319  Biso   1.000  C 
  C328     1.0000 0.92277  0.54939  0.72817  Biso   1.000  C 
  C329     1.0000 0.56266  0.45660  0.70653  Biso   1.000  C 
  H371     1.0000 0.59127  0.53165  0.72593  Biso   1.000  H 
  H372     1.0000 0.53706  0.51341  0.76104  Biso   1.000  H 
  H373     1.0000 0.58625  0.42455  0.71662  Biso   1.000  H 
  C330     1.0000 0.57331  0.46677  0.65013  Biso   1.000  C 
  H374     1.0000 0.52317  0.44462  0.71229  Biso   1.000  H 
  H375     1.0000 0.61418  0.46646  0.64207  Biso   1.000  H 
  H376     1.0000 0.55770  0.50519  0.64057  Biso   1.000  H 
  C331     1.0000 0.54352  0.43182  0.61795  Biso   1.000  C 
  C332     1.0000 0.90255  0.57739  0.77425  Biso   1.000  C 
  H377     1.0000 0.91623  0.57003  0.69290  Biso   1.000  H 
  H378     1.0000 0.96328  0.54716  0.73410  Biso   1.000  H 
  C333     1.0000 0.87111  0.62182  0.75732  Biso   1.000  C 
  H379     1.0000 0.93506  0.59412  0.79459  Biso   1.000  H 
  H380     1.0000 0.88326  0.55250  0.79995  Biso   1.000  H 
  H381     1.0000 0.84366  0.60945  0.72876  Biso   1.000  H 
  H382     1.0000 0.89648  0.64972  0.74051  Biso   1.000  H 
  C334     1.0000 0.84457  0.64663  0.80055  Biso   1.000  C 
  H383     1.0000 0.54471  0.44579  0.57958  Biso   1.000  H 
  C335     1.0000 0.55909  0.37922  0.62025  Biso   1.000  C 
  H384     1.0000 0.50453  0.43407  0.63095  Biso   1.000  H 
  H385     1.0000 0.81653  0.61928  0.81328  Biso   1.000  H 
  C336     1.0000 0.81752  0.69536  0.78744  Biso   1.000  C 
  H386     1.0000 0.87033  0.65557  0.83167  Biso   1.000  H 
  H387     1.0000 0.81715  0.70314  0.74691  Biso   1.000  H 
  H388     1.0000 0.83499  0.72712  0.80740  Biso   1.000  H 
  H389     1.0000 0.77847  0.69210  0.80048  Biso   1.000  H 
  H390     1.0000 0.53058  0.35704  0.59951  Biso   1.000  H 
  H391     1.0000 0.56328  0.36341  0.65843  Biso   1.000  H 
  H392     1.0000 0.59472  0.37696  0.60148  Biso   1.000  H 
  O117     1.0000 0.86740  0.50000  0.42810  Biso   1.000  O 
  C337     1.0000 0.88280  0.50000  0.38280  Biso   1.000  C 
  O118     1.0000 0.92810  0.50000  0.36740  Biso   1.000  O 
  C338     1.0000 0.84350  0.50000  0.34350  Biso   1.000  C 
  C339     1.0000 0.79420  0.50000  0.35530  Biso   1.000  C 
  C340     1.0000 0.85530  0.50000  0.29420  Biso   1.000  C 
  C341     1.0000 0.75800  0.50000  0.32050  Biso   1.000  C 
  H393     1.0000 0.78510  0.50000  0.38860  Biso   1.000  H 
  C342     1.0000 0.82050  0.50000  0.25800  Biso   1.000  C 
  O119     1.0000 0.90713  0.50059  0.27742  Biso   1.000  O 
  C343     1.0000 0.76930  0.50000  0.26930  Biso   1.000  C 
  C344     1.0000 0.73070  0.50000  0.23070  Biso   1.000  C 
  H394     1.0000 0.72490  0.50000  0.33050  Biso   1.000  H 
  C345     1.0000 0.67950  0.50000  0.24200  Biso   1.000  C 
  H395     1.0000 0.83050  0.50000  0.22490  Biso   1.000  H 
  C346     1.0000 0.74200  0.50000  0.17950  Biso   1.000  C 
  C347     1.0000 0.64470  0.50000  0.20580  Biso   1.000  C 
  H396     1.0000 0.66950  0.50000  0.27510  Biso   1.000  H 
  C348     1.0000 0.70580  0.50000  0.14470  Biso   1.000  C 
  H397     1.0000 0.77510  0.50000  0.16950  Biso   1.000  H 
  C349     1.0000 0.65650  0.50000  0.15650  Biso   1.000  C 
  C350     1.0000 0.61720  0.50000  0.11720  Biso   1.000  C 
  O120     1.0000 0.59728  0.52333  0.21837  Biso   1.000  O 
  H398     1.0000 0.71490  0.50000  0.11140  Biso   1.000  H 
  O121     1.0000 0.57190  0.50000  0.13260  Biso   1.000  O 
  O122     1.0000 0.63260  0.50000  0.07190  Biso   1.000  O 
  C351     1.0000 0.57146  0.50055  0.25681  Biso   1.000  C 
  C352     1.0000 0.92277  0.45061  0.27183  Biso   1.000  C 
  C353     1.0000 0.56266  0.54340  0.29347  Biso   1.000  C 
  H399     1.0000 0.59127  0.46835  0.27407  Biso   1.000  H 
  H400     1.0000 0.53706  0.48659  0.23896  Biso   1.000  H 
  H401     1.0000 0.58625  0.57545  0.28338  Biso   1.000  H 
  C354     1.0000 0.57331  0.53323  0.34987  Biso   1.000  C 
  H402     1.0000 0.52317  0.55538  0.28771  Biso   1.000  H 
  H403     1.0000 0.61418  0.53354  0.35793  Biso   1.000  H 
  H404     1.0000 0.55770  0.49481  0.35943  Biso   1.000  H 
  C355     1.0000 0.54352  0.56818  0.38205  Biso   1.000  C 
  C356     1.0000 0.90255  0.42261  0.22575  Biso   1.000  C 
  H405     1.0000 0.91623  0.42998  0.30710  Biso   1.000  H 
  H406     1.0000 0.96328  0.45284  0.26590  Biso   1.000  H 
  C357     1.0000 0.87112  0.37817  0.24267  Biso   1.000  C 
  H407     1.0000 0.93505  0.40589  0.20540  Biso   1.000  H 
  H408     1.0000 0.88325  0.44750  0.20006  Biso   1.000  H 
  H409     1.0000 0.84369  0.39053  0.27127  Biso   1.000  H 
  H410     1.0000 0.89649  0.35026  0.25945  Biso   1.000  H 
  C358     1.0000 0.84454  0.35339  0.19946  Biso   1.000  C 
  H411     1.0000 0.54471  0.55421  0.42042  Biso   1.000  H 
  C359     1.0000 0.55909  0.62078  0.37975  Biso   1.000  C 
  H412     1.0000 0.50453  0.56593  0.36905  Biso   1.000  H 
  H413     1.0000 0.81649  0.38074  0.18678  Biso   1.000  H 
  C360     1.0000 0.81752  0.30464  0.21254  Biso   1.000  C 
  H414     1.0000 0.87027  0.34449  0.16830  Biso   1.000  H 
  H415     1.0000 0.81715  0.29685  0.25308  Biso   1.000  H 
  H416     1.0000 0.83502  0.27290  0.19259  Biso   1.000  H 
  H417     1.0000 0.77847  0.30788  0.19950  Biso   1.000  H 
  H418     1.0000 0.53058  0.64296  0.40049  Biso   1.000  H 
  H419     1.0000 0.56328  0.63659  0.34157  Biso   1.000  H 
  H420     1.0000 0.59472  0.62304  0.39852  Biso   1.000  H 
  O123     1.0000 0.13260  0.50000  0.42810  Biso   1.000  O 
  C361     1.0000 0.11720  0.50000  0.38280  Biso   1.000  C 
  O124     1.0000 0.07190  0.50000  0.36740  Biso   1.000  O 
  C362     1.0000 0.15650  0.50000  0.34350  Biso   1.000  C 
  C363     1.0000 0.20580  0.50000  0.35530  Biso   1.000  C 
  C364     1.0000 0.14470  0.50000  0.29420  Biso   1.000  C 
  C365     1.0000 0.24200  0.50000  0.32050  Biso   1.000  C 
  H421     1.0000 0.21490  0.50000  0.38860  Biso   1.000  H 
  C366     1.0000 0.17950  0.50000  0.25800  Biso   1.000  C 
  O125     1.0000 0.09287  0.49941  0.27742  Biso   1.000  O 
  C367     1.0000 0.23070  0.50000  0.26930  Biso   1.000  C 
  C368     1.0000 0.26930  0.50000  0.23070  Biso   1.000  C 
  H422     1.0000 0.27510  0.50000  0.33050  Biso   1.000  H 
  C369     1.0000 0.32050  0.50000  0.24200  Biso   1.000  C 
  H423     1.0000 0.16950  0.50000  0.22490  Biso   1.000  H 
  C370     1.0000 0.25800  0.50000  0.17950  Biso   1.000  C 
  C371     1.0000 0.35530  0.50000  0.20580  Biso   1.000  C 
  H424     1.0000 0.33050  0.50000  0.27510  Biso   1.000  H 
  C372     1.0000 0.29420  0.50000  0.14470  Biso   1.000  C 
  H425     1.0000 0.22490  0.50000  0.16950  Biso   1.000  H 
  C373     1.0000 0.34350  0.50000  0.15650  Biso   1.000  C 
  C374     1.0000 0.38280  0.50000  0.11720  Biso   1.000  C 
  O126     1.0000 0.40272  0.47667  0.21837  Biso   1.000  O 
  H426     1.0000 0.28510  0.50000  0.11140  Biso   1.000  H 
  O127     1.0000 0.42810  0.50000  0.13260  Biso   1.000  O 
  O128     1.0000 0.36740  0.50000  0.07190  Biso   1.000  O 
  C375     1.0000 0.42854  0.49945  0.25681  Biso   1.000  C 
  C376     1.0000 0.07723  0.54939  0.27183  Biso   1.000  C 
  C377     1.0000 0.43734  0.45660  0.29347  Biso   1.000  C 
  H427     1.0000 0.40873  0.53165  0.27407  Biso   1.000  H 
  H428     1.0000 0.46294  0.51341  0.23896  Biso   1.000  H 
  H429     1.0000 0.41375  0.42455  0.28338  Biso   1.000  H 
  C378     1.0000 0.42669  0.46677  0.34987  Biso   1.000  C 
  H430     1.0000 0.47683  0.44462  0.28771  Biso   1.000  H 
  H431     1.0000 0.38582  0.46646  0.35793  Biso   1.000  H 
  H432     1.0000 0.44230  0.50519  0.35943  Biso   1.000  H 
  C379     1.0000 0.45648  0.43182  0.38205  Biso   1.000  C 
  C380     1.0000 0.09745  0.57739  0.22575  Biso   1.000  C 
  H433     1.0000 0.08377  0.57003  0.30710  Biso   1.000  H 
  H434     1.0000 0.03672  0.54716  0.26590  Biso   1.000  H 
  C381     1.0000 0.12889  0.62182  0.24268  Biso   1.000  C 
  H435     1.0000 0.06494  0.59412  0.20541  Biso   1.000  H 
  H436     1.0000 0.11674  0.55250  0.20005  Biso   1.000  H 
  H437     1.0000 0.15634  0.60944  0.27124  Biso   1.000  H 
  H438     1.0000 0.10353  0.64972  0.25949  Biso   1.000  H 
  C382     1.0000 0.15543  0.64663  0.19945  Biso   1.000  C 
  H439     1.0000 0.45529  0.44579  0.42042  Biso   1.000  H 
  C383     1.0000 0.44091  0.37922  0.37975  Biso   1.000  C 
  H440     1.0000 0.49547  0.43407  0.36905  Biso   1.000  H 
  H441     1.0000 0.18346  0.61928  0.18672  Biso   1.000  H 
  C384     1.0000 0.18248  0.69536  0.21256  Biso   1.000  C 
  H442     1.0000 0.12967  0.65557  0.16833  Biso   1.000  H 
  H443     1.0000 0.18285  0.70314  0.25310  Biso   1.000  H 
  H444     1.0000 0.16501  0.72712  0.19260  Biso   1.000  H 
  H445     1.0000 0.22154  0.69210  0.19952  Biso   1.000  H 
  H446     1.0000 0.46942  0.35704  0.40049  Biso   1.000  H 
  H447     1.0000 0.43672  0.36341  0.34157  Biso   1.000  H 
  H448     1.0000 0.40528  0.37696  0.39852  Biso   1.000  H 
  O129     1.0000 0.07190  0.63260  0.50000  Biso   1.000  O 
  C385     1.0000 0.11720  0.61720  0.50000  Biso   1.000  C 
  O130     1.0000 0.13260  0.57190  0.50000  Biso   1.000  O 
  C386     1.0000 0.15650  0.65650  0.50000  Biso   1.000  C 
  C387     1.0000 0.14470  0.70580  0.50000  Biso   1.000  C 
  C388     1.0000 0.20580  0.64470  0.50000  Biso   1.000  C 
  C389     1.0000 0.17950  0.74200  0.50000  Biso   1.000  C 
  H449     1.0000 0.11140  0.71490  0.50000  Biso   1.000  H 
  C390     1.0000 0.24200  0.67950  0.50000  Biso   1.000  C 
  O131     1.0000 0.21883  0.59364  0.51479  Biso   1.000  O 
  C391     1.0000 0.23070  0.73070  0.50000  Biso   1.000  C 
  C392     1.0000 0.26930  0.76930  0.50000  Biso   1.000  C 
  H450     1.0000 0.16950  0.77510  0.50000  Biso   1.000  H 
  C393     1.0000 0.25800  0.82050  0.50000  Biso   1.000  C 
  H451     1.0000 0.27510  0.66950  0.50000  Biso   1.000  H 
  C394     1.0000 0.32050  0.75800  0.50000  Biso   1.000  C 
  C395     1.0000 0.29420  0.85530  0.50000  Biso   1.000  C 
  H452     1.0000 0.22490  0.83050  0.50000  Biso   1.000  H 
  C396     1.0000 0.35530  0.79420  0.50000  Biso   1.000  C 
  H453     1.0000 0.33050  0.72490  0.50000  Biso   1.000  H 
  C397     1.0000 0.34350  0.84350  0.50000  Biso   1.000  C 
  C398     1.0000 0.38280  0.88280  0.50000  Biso   1.000  C 
  O132     1.0000 0.27672  0.90755  0.51238  Biso   1.000  O 
  H454     1.0000 0.38860  0.78510  0.50000  Biso   1.000  H 
  O133     1.0000 0.36740  0.92810  0.50000  Biso   1.000  O 
  O134     1.0000 0.42810  0.86740  0.50000  Biso   1.000  O 
  C399     1.0000 0.23006  0.90842  0.53892  Biso   1.000  C 
  C400     1.0000 0.26187  0.57563  0.49143  Biso   1.000  C 
  C401     1.0000 0.21279  0.95550  0.56279  Biso   1.000  C 
  H455     1.0000 0.22719  0.87791  0.56735  Biso   1.000  H 
  H456     1.0000 0.20181  0.90335  0.50987  Biso   1.000  H 
  H457     1.0000 0.22967  0.95373  0.59946  Biso   1.000  H 
  C402     1.0000 0.15516  0.96004  0.57323  Biso   1.000  C 
  H458     1.0000 0.22465  0.98681  0.54045  Biso   1.000  H 
  H459     1.0000 0.14429  0.94627  0.60982  Biso   1.000  H 
  H460     1.0000 0.13385  0.93718  0.54566  Biso   1.000  H 
  C403     1.0000 0.13714  0.01290  0.56433  Biso   1.000  C 
  C404     1.0000 0.30415  0.57955  0.53032  Biso   1.000  C 
  H461     1.0000 0.27135  0.59622  0.45676  Biso   1.000  H 
  H462     1.0000 0.25506  0.53654  0.48044  Biso   1.000  H 
  C405     1.0000 0.35444  0.56851  0.50775  Biso   1.000  C 
  H463     1.0000 0.29501  0.54982  0.55774  Biso   1.000  H 
  H464     1.0000 0.30548  0.61536  0.55110  Biso   1.000  H 
  H465     1.0000 0.34865  0.54800  0.47224  Biso   1.000  H 
  H466     1.0000 0.37528  0.54396  0.53306  Biso   1.000  H 
  C406     1.0000 0.38582  0.61503  0.49584  Biso   1.000  C 
  H467     1.0000 0.09620  0.01397  0.56805  Biso   1.000  H 
  C407     1.0000 0.15880  0.05241  0.59688  Biso   1.000  C 
  H468     1.0000 0.14747  0.02387  0.52739  Biso   1.000  H 
  H469     1.0000 0.36556  0.63477  0.46720  Biso   1.000  H 
  C408     1.0000 0.43566  0.60130  0.47291  Biso   1.000  C 
  H470     1.0000 0.39089  0.63972  0.52769  Biso   1.000  H 
  H471     1.0000 0.45218  0.63451  0.45586  Biso   1.000  H 
  H472     1.0000 0.43144  0.57253  0.44335  Biso   1.000  H 
  H473     1.0000 0.46031  0.58782  0.50231  Biso   1.000  H 
  H474     1.0000 0.19961  0.05531  0.59043  Biso   1.000  H 
  H475     1.0000 0.15141  0.04217  0.63600  Biso   1.000  H 
  H476     1.0000 0.14282  0.08885  0.58941  Biso   1.000  H 
  O135     1.0000 0.07190  0.36740  0.50000  Biso   1.000  O 
  C409     1.0000 0.11720  0.38280  0.50000  Biso   1.000  C 
  O136     1.0000 0.13260  0.42810  0.50000  Biso   1.000  O 
  C410     1.0000 0.15650  0.34350  0.50000  Biso   1.000  C 
  C411     1.0000 0.14470  0.29420  0.50000  Biso   1.000  C 
  C412     1.0000 0.20580  0.35530  0.50000  Biso   1.000  C 
  C413     1.0000 0.17950  0.25800  0.50000  Biso   1.000  C 
  H477     1.0000 0.11140  0.28510  0.50000  Biso   1.000  H 
  C414     1.0000 0.24200  0.32050  0.50000  Biso   1.000  C 
  O137     1.0000 0.21883  0.40636  0.48521  Biso   1.000  O 
  C415     1.0000 0.23070  0.26930  0.50000  Biso   1.000  C 
  C416     1.0000 0.26930  0.23070  0.50000  Biso   1.000  C 
  H478     1.0000 0.16950  0.22490  0.50000  Biso   1.000  H 
  C417     1.0000 0.25800  0.17950  0.50000  Biso   1.000  C 
  H479     1.0000 0.27510  0.33050  0.50000  Biso   1.000  H 
  C418     1.0000 0.32050  0.24200  0.50000  Biso   1.000  C 
  C419     1.0000 0.29420  0.14470  0.50000  Biso   1.000  C 
  H480     1.0000 0.22490  0.16950  0.50000  Biso   1.000  H 
  C420     1.0000 0.35530  0.20580  0.50000  Biso   1.000  C 
  H481     1.0000 0.33050  0.27510  0.50000  Biso   1.000  H 
  C421     1.0000 0.34350  0.15650  0.50000  Biso   1.000  C 
  C422     1.0000 0.38280  0.11720  0.50000  Biso   1.000  C 
  O138     1.0000 0.27672  0.09244  0.48761  Biso   1.000  O 
  H482     1.0000 0.38860  0.21490  0.50000  Biso   1.000  H 
  O139     1.0000 0.36740  0.07190  0.50000  Biso   1.000  O 
  O140     1.0000 0.42810  0.13260  0.50000  Biso   1.000  O 
  C423     1.0000 0.23006  0.09159  0.46107  Biso   1.000  C 
  C424     1.0000 0.26187  0.42437  0.50857  Biso   1.000  C 
  C425     1.0000 0.21275  0.04453  0.43722  Biso   1.000  C 
  H483     1.0000 0.22721  0.12209  0.43264  Biso   1.000  H 
  H484     1.0000 0.20182  0.09669  0.49011  Biso   1.000  H 
  H485     1.0000 0.22961  0.04622  0.40054  Biso   1.000  H 
  C426     1.0000 0.15512  0.03999  0.42679  Biso   1.000  C 
  H486     1.0000 0.22457  0.01322  0.45960  Biso   1.000  H 
  H487     1.0000 0.14421  0.05378  0.39023  Biso   1.000  H 
  H488     1.0000 0.13383  0.06282  0.45441  Biso   1.000  H 
  C427     1.0000 0.13715  0.98711  0.43567  Biso   1.000  C 
  C428     1.0000 0.30415  0.42045  0.46968  Biso   1.000  C 
  H489     1.0000 0.27135  0.40378  0.54324  Biso   1.000  H 
  H490     1.0000 0.25506  0.46346  0.51956  Biso   1.000  H 
  C429     1.0000 0.35444  0.43149  0.49225  Biso   1.000  C 
  H491     1.0000 0.29501  0.45018  0.44226  Biso   1.000  H 
  H492     1.0000 0.30548  0.38464  0.44890  Biso   1.000  H 
  H493     1.0000 0.34865  0.45200  0.52776  Biso   1.000  H 
  H494     1.0000 0.37528  0.45604  0.46694  Biso   1.000  H 
  C430     1.0000 0.38582  0.38497  0.50416  Biso   1.000  C 
  H495     1.0000 0.09621  0.98602  0.43196  Biso   1.000  H 
  C431     1.0000 0.15880  0.94760  0.40310  Biso   1.000  C 
  H496     1.0000 0.14750  0.97611  0.47260  Biso   1.000  H 
  H497     1.0000 0.36556  0.36523  0.53280  Biso   1.000  H 
  C432     1.0000 0.43566  0.39870  0.52709  Biso   1.000  C 
  H498     1.0000 0.39089  0.36028  0.47231  Biso   1.000  H 
  H499     1.0000 0.45218  0.36548  0.54414  Biso   1.000  H 
  H500     1.0000 0.43144  0.42747  0.55665  Biso   1.000  H 
  H501     1.0000 0.46031  0.41218  0.49769  Biso   1.000  H 
  H502     1.0000 0.19962  0.94472  0.40951  Biso   1.000  H 
  H503     1.0000 0.15138  0.95783  0.36398  Biso   1.000  H 
  H504     1.0000 0.14285  0.91115  0.41057  Biso   1.000  H 
  O141     1.0000 0.92810  0.36740  0.50000  Biso   1.000  O 
  C433     1.0000 0.88280  0.38280  0.50000  Biso   1.000  C 
  O142     1.0000 0.86740  0.42810  0.50000  Biso   1.000  O 
  C434     1.0000 0.84350  0.34350  0.50000  Biso   1.000  C 
  C435     1.0000 0.85530  0.29420  0.50000  Biso   1.000  C 
  C436     1.0000 0.79420  0.35530  0.50000  Biso   1.000  C 
  C437     1.0000 0.82050  0.25800  0.50000  Biso   1.000  C 
  H505     1.0000 0.88860  0.28510  0.50000  Biso   1.000  H 
  C438     1.0000 0.75800  0.32050  0.50000  Biso   1.000  C 
  O143     1.0000 0.78117  0.40636  0.51479  Biso   1.000  O 
  C439     1.0000 0.76930  0.26930  0.50000  Biso   1.000  C 
  C440     1.0000 0.73070  0.23070  0.50000  Biso   1.000  C 
  H506     1.0000 0.83050  0.22490  0.50000  Biso   1.000  H 
  C441     1.0000 0.74200  0.17950  0.50000  Biso   1.000  C 
  H507     1.0000 0.72490  0.33050  0.50000  Biso   1.000  H 
  C442     1.0000 0.67950  0.24200  0.50000  Biso   1.000  C 
  C443     1.0000 0.70580  0.14470  0.50000  Biso   1.000  C 
  H508     1.0000 0.77510  0.16950  0.50000  Biso   1.000  H 
  C444     1.0000 0.64470  0.20580  0.50000  Biso   1.000  C 
  H509     1.0000 0.66950  0.27510  0.50000  Biso   1.000  H 
  C445     1.0000 0.65650  0.15650  0.50000  Biso   1.000  C 
  C446     1.0000 0.61720  0.11720  0.50000  Biso   1.000  C 
  O144     1.0000 0.72328  0.09244  0.51239  Biso   1.000  O 
  H510     1.0000 0.61140  0.21490  0.50000  Biso   1.000  H 
  O145     1.0000 0.63260  0.07190  0.50000  Biso   1.000  O 
  O146     1.0000 0.57190  0.13260  0.50000  Biso   1.000  O 
  C447     1.0000 0.76994  0.09159  0.53893  Biso   1.000  C 
  C448     1.0000 0.73813  0.42437  0.49143  Biso   1.000  C 
  C449     1.0000 0.78725  0.04453  0.56278  Biso   1.000  C 
  H511     1.0000 0.77279  0.12209  0.56736  Biso   1.000  H 
  H512     1.0000 0.79818  0.09669  0.50989  Biso   1.000  H 
  H513     1.0000 0.77039  0.04622  0.59946  Biso   1.000  H 
  C450     1.0000 0.84488  0.03999  0.57321  Biso   1.000  C 
  H514     1.0000 0.77543  0.01323  0.54040  Biso   1.000  H 
  H515     1.0000 0.85579  0.05378  0.60977  Biso   1.000  H 
  H516     1.0000 0.86617  0.06282  0.54559  Biso   1.000  H 
  C451     1.0000 0.86285  0.98711  0.56433  Biso   1.000  C 
  C452     1.0000 0.69585  0.42045  0.53032  Biso   1.000  C 
  H517     1.0000 0.72865  0.40378  0.45676  Biso   1.000  H 
  H518     1.0000 0.74494  0.46346  0.48044  Biso   1.000  H 
  C453     1.0000 0.64556  0.43149  0.50775  Biso   1.000  C 
  H519     1.0000 0.70499  0.45018  0.55774  Biso   1.000  H 
  H520     1.0000 0.69452  0.38464  0.55110  Biso   1.000  H 
  H521     1.0000 0.65135  0.45200  0.47224  Biso   1.000  H 
  H522     1.0000 0.62472  0.45604  0.53306  Biso   1.000  H 
  C454     1.0000 0.61418  0.38497  0.49584  Biso   1.000  C 
  H523     1.0000 0.90379  0.98602  0.56804  Biso   1.000  H 
  C455     1.0000 0.84120  0.94760  0.59690  Biso   1.000  C 
  H524     1.0000 0.85250  0.97611  0.52740  Biso   1.000  H 
  H525     1.0000 0.63444  0.36523  0.46720  Biso   1.000  H 
  C456     1.0000 0.56434  0.39870  0.47291  Biso   1.000  C 
  H526     1.0000 0.60911  0.36028  0.52769  Biso   1.000  H 
  H527     1.0000 0.54782  0.36548  0.45586  Biso   1.000  H 
  H528     1.0000 0.56856  0.42747  0.44335  Biso   1.000  H 
  H529     1.0000 0.53969  0.41218  0.50231  Biso   1.000  H 
  H530     1.0000 0.80038  0.94472  0.59049  Biso   1.000  H 
  H531     1.0000 0.84862  0.95783  0.63602  Biso   1.000  H 
  H532     1.0000 0.85715  0.91115  0.58943  Biso   1.000  H 
  O147     1.0000 0.92810  0.63260  0.50000  Biso   1.000  O 
  C457     1.0000 0.88280  0.61720  0.50000  Biso   1.000  C 
  O148     1.0000 0.86740  0.57190  0.50000  Biso   1.000  O 
  C458     1.0000 0.84350  0.65650  0.50000  Biso   1.000  C 
  C459     1.0000 0.85530  0.70580  0.50000  Biso   1.000  C 
  C460     1.0000 0.79420  0.64470  0.50000  Biso   1.000  C 
  C461     1.0000 0.82050  0.74200  0.50000  Biso   1.000  C 
  H533     1.0000 0.88860  0.71490  0.50000  Biso   1.000  H 
  C462     1.0000 0.75800  0.67950  0.50000  Biso   1.000  C 
  O149     1.0000 0.78117  0.59364  0.48521  Biso   1.000  O 
  C463     1.0000 0.76930  0.73070  0.50000  Biso   1.000  C 
  C464     1.0000 0.73070  0.76930  0.50000  Biso   1.000  C 
  H534     1.0000 0.83050  0.77510  0.50000  Biso   1.000  H 
  C465     1.0000 0.74200  0.82050  0.50000  Biso   1.000  C 
  H535     1.0000 0.72490  0.66950  0.50000  Biso   1.000  H 
  C466     1.0000 0.67950  0.75800  0.50000  Biso   1.000  C 
  C467     1.0000 0.70580  0.85530  0.50000  Biso   1.000  C 
  H536     1.0000 0.77510  0.83050  0.50000  Biso   1.000  H 
  C468     1.0000 0.64470  0.79420  0.50000  Biso   1.000  C 
  H537     1.0000 0.66950  0.72490  0.50000  Biso   1.000  H 
  C469     1.0000 0.65650  0.84350  0.50000  Biso   1.000  C 
  C470     1.0000 0.61720  0.88280  0.50000  Biso   1.000  C 
  O150     1.0000 0.72328  0.90755  0.48762  Biso   1.000  O 
  H538     1.0000 0.61140  0.78510  0.50000  Biso   1.000  H 
  O151     1.0000 0.63260  0.92810  0.50000  Biso   1.000  O 
  O152     1.0000 0.57190  0.86740  0.50000  Biso   1.000  O 
  C471     1.0000 0.76994  0.90842  0.46108  Biso   1.000  C 
  C472     1.0000 0.73813  0.57563  0.50857  Biso   1.000  C 
  C473     1.0000 0.78721  0.95550  0.43721  Biso   1.000  C 
  H539     1.0000 0.77281  0.87791  0.43265  Biso   1.000  H 
  H540     1.0000 0.79819  0.90335  0.49013  Biso   1.000  H 
  H541     1.0000 0.77033  0.95373  0.40054  Biso   1.000  H 
  C474     1.0000 0.84484  0.96004  0.42677  Biso   1.000  C 
  H542     1.0000 0.77535  0.98681  0.45955  Biso   1.000  H 
  H543     1.0000 0.85571  0.94627  0.39018  Biso   1.000  H 
  H544     1.0000 0.86615  0.93718  0.45434  Biso   1.000  H 
  C475     1.0000 0.86286  0.01290  0.43567  Biso   1.000  C 
  C476     1.0000 0.69585  0.57955  0.46968  Biso   1.000  C 
  H545     1.0000 0.72865  0.59622  0.54324  Biso   1.000  H 
  H546     1.0000 0.74494  0.53654  0.51956  Biso   1.000  H 
  C477     1.0000 0.64556  0.56851  0.49225  Biso   1.000  C 
  H547     1.0000 0.70499  0.54982  0.44226  Biso   1.000  H 
  H548     1.0000 0.69452  0.61536  0.44890  Biso   1.000  H 
  H549     1.0000 0.65135  0.54800  0.52776  Biso   1.000  H 
  H550     1.0000 0.62472  0.54396  0.46694  Biso   1.000  H 
  C478     1.0000 0.61418  0.61503  0.50416  Biso   1.000  C 
  H551     1.0000 0.90380  0.01397  0.43195  Biso   1.000  H 
  C479     1.0000 0.84120  0.05241  0.40312  Biso   1.000  C 
  H552     1.0000 0.85253  0.02387  0.47261  Biso   1.000  H 
  H553     1.0000 0.63444  0.63477  0.53280  Biso   1.000  H 
  C480     1.0000 0.56434  0.60130  0.52709  Biso   1.000  C 
  H554     1.0000 0.60911  0.63972  0.47231  Biso   1.000  H 
  H555     1.0000 0.54782  0.63451  0.54414  Biso   1.000  H 
  H556     1.0000 0.56856  0.57253  0.55665  Biso   1.000  H 
  H557     1.0000 0.53969  0.58782  0.49769  Biso   1.000  H 
  H558     1.0000 0.80039  0.05531  0.40957  Biso   1.000  H 
  H559     1.0000 0.84859  0.04217  0.36400  Biso   1.000  H 
  H560     1.0000 0.85718  0.08885  0.41059  Biso   1.000  H 
  O153     1.0000 0.50000  0.07190  0.63260  Biso   1.000  O 
  C481     1.0000 0.50000  0.11720  0.61720  Biso   1.000  C 
  O154     1.0000 0.50000  0.13260  0.57190  Biso   1.000  O 
  C482     1.0000 0.50000  0.15650  0.65650  Biso   1.000  C 
  C483     1.0000 0.50000  0.14470  0.70580  Biso   1.000  C 
  C484     1.0000 0.50000  0.20580  0.64470  Biso   1.000  C 
  C485     1.0000 0.50000  0.17950  0.74200  Biso   1.000  C 
  H561     1.0000 0.50000  0.11140  0.71490  Biso   1.000  H 
  C486     1.0000 0.50000  0.24200  0.67950  Biso   1.000  C 
  O155     1.0000 0.49990  0.22490  0.59286  Biso   1.000  O 
  C487     1.0000 0.50000  0.23070  0.73070  Biso   1.000  C 
  C488     1.0000 0.50000  0.26930  0.76930  Biso   1.000  C 
  H562     1.0000 0.50000  0.16950  0.77510  Biso   1.000  H 
  C489     1.0000 0.50000  0.25800  0.82050  Biso   1.000  C 
  H563     1.0000 0.50000  0.27510  0.66950  Biso   1.000  H 
  C490     1.0000 0.50000  0.32050  0.75800  Biso   1.000  C 
  C491     1.0000 0.50000  0.29420  0.85530  Biso   1.000  C 
  H564     1.0000 0.50000  0.22490  0.83050  Biso   1.000  H 
  C492     1.0000 0.50000  0.35530  0.79420  Biso   1.000  C 
  H565     1.0000 0.50000  0.33050  0.72490  Biso   1.000  H 
  C493     1.0000 0.50000  0.34350  0.84350  Biso   1.000  C 
  C494     1.0000 0.50000  0.38280  0.88280  Biso   1.000  C 
  O156     1.0000 0.50984  0.27676  0.90853  Biso   1.000  O 
  H566     1.0000 0.50000  0.38860  0.78510  Biso   1.000  H 
  O157     1.0000 0.50000  0.36740  0.92810  Biso   1.000  O 
  O158     1.0000 0.50000  0.42810  0.86740  Biso   1.000  O 
  C495     1.0000 0.53419  0.22839  0.91214  Biso   1.000  C 
  C496     1.0000 0.45278  0.23333  0.57234  Biso   1.000  C 
  C497     1.0000 0.56475  0.21767  0.95929  Biso   1.000  C 
  H567     1.0000 0.56045  0.22198  0.88054  Biso   1.000  H 
  H568     1.0000 0.50526  0.20003  0.91090  Biso   1.000  H 
  H569     1.0000 0.60123  0.23019  0.94643  Biso   1.000  H 
  C498     1.0000 0.57366  0.16183  0.96775  Biso   1.000  C 
  H570     1.0000 0.55200  0.23961  0.99067  Biso   1.000  H 
  H571     1.0000 0.61037  0.15249  0.95104  Biso   1.000  H 
  H572     1.0000 0.54580  0.13840  0.94865  Biso   1.000  H 
  C499     1.0000 0.57127  0.14741  0.02317  Biso   1.000  C 
  C500     1.0000 0.42443  0.27941  0.58979  Biso   1.000  C 
  H573     1.0000 0.42940  0.19994  0.57825  Biso   1.000  H 
  H574     1.0000 0.45956  0.23759  0.53176  Biso   1.000  H 
  C501     1.0000 0.37769  0.26603  0.62264  Biso   1.000  C 
  H575     1.0000 0.40907  0.29505  0.55487  Biso   1.000  H 
  H576     1.0000 0.45128  0.30604  0.60637  Biso   1.000  H 
  H577     1.0000 0.38721  0.25206  0.66051  Biso   1.000  H 
  H578     1.0000 0.35471  0.23696  0.60384  Biso   1.000  H 
  C502     1.0000 0.34317  0.31177  0.62617  Biso   1.000  C 
  H579     1.0000 0.58979  0.10987  0.02634  Biso   1.000  H 
  C503     1.0000 0.59871  0.18047  0.06016  Biso   1.000  C 
  H580     1.0000 0.53452  0.14663  0.03812  Biso   1.000  H 
  H581     1.0000 0.33473  0.32612  0.58920  Biso   1.000  H 
  C504     1.0000 0.37069  0.34859  0.65906  Biso   1.000  C 
  H582     1.0000 0.30758  0.29977  0.64326  Biso   1.000  H 
  H583     1.0000 0.38242  0.32941  0.69404  Biso   1.000  H 
  H584     1.0000 0.34556  0.37958  0.66852  Biso   1.000  H 
  H585     1.0000 0.40357  0.36430  0.63954  Biso   1.000  H 
  H586     1.0000 0.58588  0.21961  0.06390  Biso   1.000  H 
  H587     1.0000 0.63704  0.18082  0.04886  Biso   1.000  H 
  H588     1.0000 0.59484  0.16185  0.09742  Biso   1.000  H 
  O159     1.0000 0.50000  0.07190  0.36740  Biso   1.000  O 
  C505     1.0000 0.50000  0.11720  0.38280  Biso   1.000  C 
  O160     1.0000 0.50000  0.13260  0.42810  Biso   1.000  O 
  C506     1.0000 0.50000  0.15650  0.34350  Biso   1.000  C 
  C507     1.0000 0.50000  0.14470  0.29420  Biso   1.000  C 
  C508     1.0000 0.50000  0.20580  0.35530  Biso   1.000  C 
  C509     1.0000 0.50000  0.17950  0.25800  Biso   1.000  C 
  H589     1.0000 0.50000  0.11140  0.28510  Biso   1.000  H 
  C510     1.0000 0.50000  0.24200  0.32050  Biso   1.000  C 
  O161     1.0000 0.50010  0.22490  0.40714  Biso   1.000  O 
  C511     1.0000 0.50000  0.23070  0.26930  Biso   1.000  C 
  C512     1.0000 0.50000  0.26930  0.23070  Biso   1.000  C 
  H590     1.0000 0.50000  0.16950  0.22490  Biso   1.000  H 
  C513     1.0000 0.50000  0.25800  0.17950  Biso   1.000  C 
  H591     1.0000 0.50000  0.27510  0.33050  Biso   1.000  H 
  C514     1.0000 0.50000  0.32050  0.24200  Biso   1.000  C 
  C515     1.0000 0.50000  0.29420  0.14470  Biso   1.000  C 
  H592     1.0000 0.50000  0.22490  0.16950  Biso   1.000  H 
  C516     1.0000 0.50000  0.35530  0.20580  Biso   1.000  C 
  H593     1.0000 0.50000  0.33050  0.27510  Biso   1.000  H 
  C517     1.0000 0.50000  0.34350  0.15650  Biso   1.000  C 
  C518     1.0000 0.50000  0.38280  0.11720  Biso   1.000  C 
  O162     1.0000 0.49016  0.27676  0.09147  Biso   1.000  O 
  H594     1.0000 0.50000  0.38860  0.21490  Biso   1.000  H 
  O163     1.0000 0.50000  0.36740  0.07190  Biso   1.000  O 
  O164     1.0000 0.50000  0.42810  0.13260  Biso   1.000  O 
  C519     1.0000 0.46581  0.22839  0.08787  Biso   1.000  C 
  C520     1.0000 0.54722  0.23333  0.42766  Biso   1.000  C 
  C521     1.0000 0.43525  0.21767  0.04071  Biso   1.000  C 
  H595     1.0000 0.43955  0.22198  0.11946  Biso   1.000  H 
  H596     1.0000 0.49474  0.20003  0.08910  Biso   1.000  H 
  H597     1.0000 0.39877  0.23019  0.05357  Biso   1.000  H 
  C522     1.0000 0.42634  0.16183  0.03225  Biso   1.000  C 
  H598     1.0000 0.44800  0.23961  0.00933  Biso   1.000  H 
  H599     1.0000 0.38963  0.15249  0.04896  Biso   1.000  H 
  H600     1.0000 0.45420  0.13840  0.05135  Biso   1.000  H 
  C523     1.0000 0.42873  0.14741  0.97683  Biso   1.000  C 
  C524     1.0000 0.57557  0.27941  0.41021  Biso   1.000  C 
  H601     1.0000 0.57060  0.19994  0.42175  Biso   1.000  H 
  H602     1.0000 0.54044  0.23759  0.46824  Biso   1.000  H 
  C525     1.0000 0.62231  0.26603  0.37736  Biso   1.000  C 
  H603     1.0000 0.59093  0.29505  0.44513  Biso   1.000  H 
  H604     1.0000 0.54872  0.30604  0.39363  Biso   1.000  H 
  H605     1.0000 0.61279  0.25206  0.33949  Biso   1.000  H 
  H606     1.0000 0.64529  0.23696  0.39616  Biso   1.000  H 
  C526     1.0000 0.65683  0.31177  0.37383  Biso   1.000  C 
  H607     1.0000 0.41021  0.10987  0.97366  Biso   1.000  H 
  C527     1.0000 0.40129  0.18047  0.93985  Biso   1.000  C 
  H608     1.0000 0.46548  0.14663  0.96188  Biso   1.000  H 
  H609     1.0000 0.66527  0.32612  0.41080  Biso   1.000  H 
  C528     1.0000 0.62931  0.34859  0.34094  Biso   1.000  C 
  H610     1.0000 0.69242  0.29977  0.35674  Biso   1.000  H 
  H611     1.0000 0.61758  0.32941  0.30596  Biso   1.000  H 
  H612     1.0000 0.65444  0.37958  0.33148  Biso   1.000  H 
  H613     1.0000 0.59643  0.36430  0.36046  Biso   1.000  H 
  H614     1.0000 0.41412  0.21961  0.93609  Biso   1.000  H 
  H615     1.0000 0.36296  0.18082  0.95115  Biso   1.000  H 
  H616     1.0000 0.40516  0.16185  0.90258  Biso   1.000  H 
  O165     1.0000 0.50000  0.92810  0.36740  Biso   1.000  O 
  C529     1.0000 0.50000  0.88280  0.38280  Biso   1.000  C 
  O166     1.0000 0.50000  0.86740  0.42810  Biso   1.000  O 
  C530     1.0000 0.50000  0.84350  0.34350  Biso   1.000  C 
  C531     1.0000 0.50000  0.85530  0.29420  Biso   1.000  C 
  C532     1.0000 0.50000  0.79420  0.35530  Biso   1.000  C 
  C533     1.0000 0.50000  0.82050  0.25800  Biso   1.000  C 
  H617     1.0000 0.50000  0.88860  0.28510  Biso   1.000  H 
  C534     1.0000 0.50000  0.75800  0.32050  Biso   1.000  C 
  O167     1.0000 0.49990  0.77510  0.40714  Biso   1.000  O 
  C535     1.0000 0.50000  0.76930  0.26930  Biso   1.000  C 
  C536     1.0000 0.50000  0.73070  0.23070  Biso   1.000  C 
  H618     1.0000 0.50000  0.83050  0.22490  Biso   1.000  H 
  C537     1.0000 0.50000  0.74200  0.17950  Biso   1.000  C 
  H619     1.0000 0.50000  0.72490  0.33050  Biso   1.000  H 
  C538     1.0000 0.50000  0.67950  0.24200  Biso   1.000  C 
  C539     1.0000 0.50000  0.70580  0.14470  Biso   1.000  C 
  H620     1.0000 0.50000  0.77510  0.16950  Biso   1.000  H 
  C540     1.0000 0.50000  0.64470  0.20580  Biso   1.000  C 
  H621     1.0000 0.50000  0.66950  0.27510  Biso   1.000  H 
  C541     1.0000 0.50000  0.65650  0.15650  Biso   1.000  C 
  C542     1.0000 0.50000  0.61720  0.11720  Biso   1.000  C 
  O168     1.0000 0.50984  0.72324  0.09147  Biso   1.000  O 
  H622     1.0000 0.50000  0.61140  0.21490  Biso   1.000  H 
  O169     1.0000 0.50000  0.63260  0.07190  Biso   1.000  O 
  O170     1.0000 0.50000  0.57190  0.13260  Biso   1.000  O 
  C543     1.0000 0.53419  0.77161  0.08787  Biso   1.000  C 
  C544     1.0000 0.45278  0.76667  0.42766  Biso   1.000  C 
  C545     1.0000 0.56475  0.78233  0.04071  Biso   1.000  C 
  H623     1.0000 0.56045  0.77802  0.11946  Biso   1.000  H 
  H624     1.0000 0.50526  0.79997  0.08910  Biso   1.000  H 
  H625     1.0000 0.60123  0.76981  0.05357  Biso   1.000  H 
  C546     1.0000 0.57366  0.83817  0.03225  Biso   1.000  C 
  H626     1.0000 0.55200  0.76039  0.00933  Biso   1.000  H 
  H627     1.0000 0.61037  0.84751  0.04897  Biso   1.000  H 
  H628     1.0000 0.54580  0.86160  0.05135  Biso   1.000  H 
  C547     1.0000 0.57127  0.85259  0.97683  Biso   1.000  C 
  C548     1.0000 0.42443  0.72059  0.41021  Biso   1.000  C 
  H629     1.0000 0.42940  0.80006  0.42175  Biso   1.000  H 
  H630     1.0000 0.45956  0.76241  0.46824  Biso   1.000  H 
  C549     1.0000 0.37769  0.73397  0.37736  Biso   1.000  C 
  H631     1.0000 0.40907  0.70495  0.44513  Biso   1.000  H 
  H632     1.0000 0.45128  0.69396  0.39363  Biso   1.000  H 
  H633     1.0000 0.38721  0.74794  0.33949  Biso   1.000  H 
  H634     1.0000 0.35471  0.76304  0.39616  Biso   1.000  H 
  C550     1.0000 0.34317  0.68823  0.37383  Biso   1.000  C 
  H635     1.0000 0.58979  0.89013  0.97366  Biso   1.000  H 
  C551     1.0000 0.59871  0.81953  0.93985  Biso   1.000  C 
  H636     1.0000 0.53452  0.85337  0.96188  Biso   1.000  H 
  H637     1.0000 0.33473  0.67388  0.41080  Biso   1.000  H 
  C552     1.0000 0.37069  0.65141  0.34094  Biso   1.000  C 
  H638     1.0000 0.30758  0.70023  0.35674  Biso   1.000  H 
  H639     1.0000 0.38242  0.67059  0.30596  Biso   1.000  H 
  H640     1.0000 0.34556  0.62042  0.33148  Biso   1.000  H 
  H641     1.0000 0.40357  0.63570  0.36046  Biso   1.000  H 
  H642     1.0000 0.58588  0.78039  0.93609  Biso   1.000  H 
  H643     1.0000 0.63704  0.81918  0.95115  Biso   1.000  H 
  H644     1.0000 0.59484  0.83815  0.90258  Biso   1.000  H 
  O171     1.0000 0.50000  0.92810  0.63260  Biso   1.000  O 
  C553     1.0000 0.50000  0.88280  0.61720  Biso   1.000  C 
  O172     1.0000 0.50000  0.86740  0.57190  Biso   1.000  O 
  C554     1.0000 0.50000  0.84350  0.65650  Biso   1.000  C 
  C555     1.0000 0.50000  0.85530  0.70580  Biso   1.000  C 
  C556     1.0000 0.50000  0.79420  0.64470  Biso   1.000  C 
  C557     1.0000 0.50000  0.82050  0.74200  Biso   1.000  C 
  H645     1.0000 0.50000  0.88860  0.71490  Biso   1.000  H 
  C558     1.0000 0.50000  0.75800  0.67950  Biso   1.000  C 
  O173     1.0000 0.50010  0.77510  0.59286  Biso   1.000  O 
  C559     1.0000 0.50000  0.76930  0.73070  Biso   1.000  C 
  C560     1.0000 0.50000  0.73070  0.76930  Biso   1.000  C 
  H646     1.0000 0.50000  0.83050  0.77510  Biso   1.000  H 
  C561     1.0000 0.50000  0.74200  0.82050  Biso   1.000  C 
  H647     1.0000 0.50000  0.72490  0.66950  Biso   1.000  H 
  C562     1.0000 0.50000  0.67950  0.75800  Biso   1.000  C 
  C563     1.0000 0.50000  0.70580  0.85530  Biso   1.000  C 
  H648     1.0000 0.50000  0.77510  0.83050  Biso   1.000  H 
  C564     1.0000 0.50000  0.64470  0.79420  Biso   1.000  C 
  H649     1.0000 0.50000  0.66950  0.72490  Biso   1.000  H 
  C565     1.0000 0.50000  0.65650  0.84350  Biso   1.000  C 
  C566     1.0000 0.50000  0.61720  0.88280  Biso   1.000  C 
  O174     1.0000 0.49016  0.72324  0.90853  Biso   1.000  O 
  H650     1.0000 0.50000  0.61140  0.78510  Biso   1.000  H 
  O175     1.0000 0.50000  0.63260  0.92810  Biso   1.000  O 
  O176     1.0000 0.50000  0.57190  0.86740  Biso   1.000  O 
  C567     1.0000 0.46581  0.77161  0.91214  Biso   1.000  C 
  C568     1.0000 0.54722  0.76667  0.57234  Biso   1.000  C 
  C569     1.0000 0.43525  0.78233  0.95929  Biso   1.000  C 
  H651     1.0000 0.43955  0.77802  0.88054  Biso   1.000  H 
  H652     1.0000 0.49474  0.79997  0.91090  Biso   1.000  H 
  H653     1.0000 0.39877  0.76981  0.94643  Biso   1.000  H 
  C570     1.0000 0.42634  0.83817  0.96775  Biso   1.000  C 
  H654     1.0000 0.44800  0.76039  0.99067  Biso   1.000  H 
  H655     1.0000 0.38963  0.84751  0.95103  Biso   1.000  H 
  H656     1.0000 0.45420  0.86160  0.94865  Biso   1.000  H 
  C571     1.0000 0.42873  0.85259  0.02317  Biso   1.000  C 
  C572     1.0000 0.57557  0.72059  0.58979  Biso   1.000  C 
  H657     1.0000 0.57060  0.80006  0.57825  Biso   1.000  H 
  H658     1.0000 0.54044  0.76241  0.53176  Biso   1.000  H 
  C573     1.0000 0.62231  0.73397  0.62264  Biso   1.000  C 
  H659     1.0000 0.59093  0.70495  0.55487  Biso   1.000  H 
  H660     1.0000 0.54872  0.69396  0.60637  Biso   1.000  H 
  H661     1.0000 0.61279  0.74794  0.66051  Biso   1.000  H 
  H662     1.0000 0.64529  0.76304  0.60384  Biso   1.000  H 
  C574     1.0000 0.65683  0.68823  0.62617  Biso   1.000  C 
  H663     1.0000 0.41021  0.89013  0.02634  Biso   1.000  H 
  C575     1.0000 0.40129  0.81953  0.06016  Biso   1.000  C 
  H664     1.0000 0.46548  0.85337  0.03812  Biso   1.000  H 
  H665     1.0000 0.66527  0.67388  0.58920  Biso   1.000  H 
  C576     1.0000 0.62931  0.65141  0.65906  Biso   1.000  C 
  H666     1.0000 0.69242  0.70023  0.64326  Biso   1.000  H 
  H667     1.0000 0.61758  0.67059  0.69404  Biso   1.000  H 
  H668     1.0000 0.65444  0.62042  0.66852  Biso   1.000  H 
  H669     1.0000 0.59643  0.63570  0.63954  Biso   1.000  H 
  H670     1.0000 0.41412  0.78039  0.06390  Biso   1.000  H 
  H671     1.0000 0.36296  0.81918  0.04886  Biso   1.000  H 
  H672     1.0000 0.40516  0.83815  0.09742  Biso   1.000  H 
